
 OpenBabel08142508303D

465485  0  0  1  0  0  0  0  0999 V2000
    9.0040   16.6411    3.4751 O   0  0  0  0  0  0  0  0  0  0  0  0
    8.9496   14.8751    0.2679 O   0  0  0  0  0  0  0  0  0  0  0  0
    7.6177   18.1706    4.5301 O   0  0  0  0  0  0  0  0  0  0  0  0
    7.3239   13.1962    0.1522 O   0  0  0  0  0  0  0  0  0  0  0  0
    9.2826   18.9127    7.7424 O   0  0  0  0  0  0  0  0  0  0  0  0
    6.0838   15.9291    0.6017 O   0  0  0  0  0  0  0  0  0  0  0  0
    9.4118   20.4240    3.8538 O   0  0  0  0  0  0  0  0  0  0  0  0
    9.6959   11.8361   -0.3360 O   0  0  0  0  0  0  0  0  0  0  0  0
    7.8380   10.1654   -0.6188 O   0  0  0  0  0  0  0  0  0  0  0  0
   10.4918   20.6318    8.5999 O   0  0  0  0  0  0  0  0  0  0  0  0
   11.4593   15.6378    3.5682 O   0  0  0  0  0  0  0  0  0  0  0  0
    7.6560   16.7960    8.5039 O   0  0  0  0  0  0  0  0  0  0  0  0
    5.0248   10.4568   -0.6479 O   0  0  0  0  0  0  0  0  0  0  0  0
    5.8894   18.3036    2.1665 N   0  0  0  0  0  0  0  0  0  0  0  0
    9.9986   14.2849   -2.1544 N   0  0  0  0  0  0  0  0  0  0  0  0
   10.0869   22.1440    5.9961 N   0  0  0  0  0  0  0  0  0  0  0  0
    8.3391   15.4307    1.4454 C   0  0  2  0  0  0  0  0  0  0  0  0
    7.2687   16.5211    1.1410 C   0  0  2  0  0  0  0  0  0  0  0  0
    6.8429   17.2166    2.4614 C   0  0  1  0  0  0  0  0  0  0  0  0
    8.0818   17.7147    3.2480 C   0  0  2  0  0  0  0  0  0  0  0  0
    9.4916   16.0687    2.2607 C   0  0  2  0  0  0  0  0  0  0  0  0
    8.6827   18.6691    5.3709 C   0  0  1  0  0  0  0  0  0  0  0  0
    8.0340   14.1842   -0.6035 C   0  0  2  0  0  0  0  0  0  0  0  0
    8.8914   20.1818    5.1597 C   0  0  1  0  0  0  0  0  0  0  0  0
    8.7600   13.5613   -1.8208 C   0  0  2  0  0  0  0  0  0  0  0  0
    8.2620   18.4465    6.8429 C   0  0  1  0  0  0  0  0  0  0  0  0
    9.0009   12.0656   -1.5682 C   0  0  2  0  0  0  0  0  0  0  0  0
    9.9122   20.6910    6.1969 C   0  0  2  0  0  0  0  0  0  0  0  0
    7.6344   11.3404   -1.4274 C   0  0  2  0  0  0  0  0  0  0  0  0
    6.6299   12.2660   -0.6941 C   0  0  1  0  0  0  0  0  0  0  0  0
    9.4633   20.3278    7.6332 C   0  0  1  0  0  0  0  0  0  0  0  0
   10.5468   15.0109    2.6611 C   0  0  0  0  0  0  0  0  0  0  0  0
    8.0192   16.9578    7.1316 C   0  0  0  0  0  0  0  0  0  0  0  0
    5.6525   11.4460    0.1745 C   0  0  0  0  0  0  0  0  0  0  0  0
   12.1657    5.3773   -3.3331 O   0  0  0  0  0  0  0  0  0  0  0  0
   14.1469    2.2218   -3.7479 O   0  0  0  0  0  0  0  0  0  0  0  0
    9.8862    5.8215   -3.3471 O   0  0  0  0  0  0  0  0  0  0  0  0
   14.7897    2.7339   -1.5172 O   0  0  0  0  0  0  0  0  0  0  0  0
    9.2017    9.2677   -2.3297 O   0  0  0  0  0  0  0  0  0  0  0  0
   11.4801    1.3948   -4.3901 O   0  0  0  0  0  0  0  0  0  0  0  0
    9.3657    5.5643   -0.3978 O   0  0  0  0  0  0  0  0  0  0  0  0
   16.8240   -0.9423   -1.2234 O   0  0  0  0  0  0  0  0  0  0  0  0
   16.6736    0.8262    1.1038 O   0  0  0  0  0  0  0  0  0  0  0  0
   14.6750    6.3140   -2.5602 O   0  0  0  0  0  0  0  0  0  0  0  0
   10.1399    9.6586   -5.0242 O   0  0  0  0  0  0  0  0  0  0  0  0
   14.2836    4.3331    0.7476 O   0  0  0  0  0  0  0  0  0  0  0  0
    9.2403    3.0820   -3.5678 N   0  0  0  0  0  0  0  0  0  0  0  0
   15.0416   -0.4524   -3.4516 N   0  0  0  0  0  0  0  0  0  0  0  0
    7.6353    7.6109    0.6069 N   0  0  0  0  0  0  0  0  0  0  0  0
   13.0374    3.1554   -3.8277 C   0  0  1  0  0  0  0  0  0  0  0  0
   11.6559    2.5363   -3.5412 C   0  0  1  0  0  0  0  0  0  0  0  0
   10.5765    3.6001   -3.8517 C   0  0  2  0  0  0  0  0  0  0  0  0
   10.8723    4.8478   -3.0111 C   0  0  1  0  0  0  0  0  0  0  0  0
   13.2163    4.4543   -3.0056 C   0  0  1  0  0  0  0  0  0  0  0  0
    9.8623    6.9143   -2.4065 C   0  0  2  0  0  0  0  0  0  0  0  0
   14.3906    1.6854   -2.4289 C   0  0  2  0  0  0  0  0  0  0  0  0
    8.8805    6.5984   -1.2681 C   0  0  2  0  0  0  0  0  0  0  0  0
   15.4937    0.6158   -2.5473 C   0  0  1  0  0  0  0  0  0  0  0  0
    9.4300    8.1537   -3.2135 C   0  0  2  0  0  0  0  0  0  0  0  0
   15.7928    0.0458   -1.1469 C   0  0  2  0  0  0  0  0  0  0  0  0
    8.6379    7.8702   -0.4414 C   0  0  1  0  0  0  0  0  0  0  0  0
   16.1960    1.2085   -0.2256 C   0  0  1  0  0  0  0  0  0  0  0  0
   15.0381    2.2358   -0.1956 C   0  0  1  0  0  0  0  0  0  0  0  0
    8.1822    9.0029   -1.3783 C   0  0  1  0  0  0  0  0  0  0  0  0
   14.5520    5.1328   -3.3516 C   0  0  0  0  0  0  0  0  0  0  0  0
   10.5463    8.5652   -4.1949 C   0  0  0  0  0  0  0  0  0  0  0  0
   15.4043    3.4510    0.6838 C   0  0  0  0  0  0  0  0  0  0  0  0
   13.2044   -1.7963    5.5809 O   0  0  0  0  0  0  0  0  0  0  0  0
    9.7791   -1.8673    7.0409 O   0  0  0  0  0  0  0  0  0  0  0  0
   14.4285   -3.2753    4.2300 O   0  0  0  0  0  0  0  0  0  0  0  0
    9.5656   -3.1946    8.9790 O   0  0  0  0  0  0  0  0  0  0  0  0
   15.5548   -1.2013    1.3279 O   0  0  0  0  0  0  0  0  0  0  0  0
   10.5611   -4.7544    6.6946 O   0  0  0  0  0  0  0  0  0  0  0  0
   15.9154   -1.1520    5.4995 O   0  0  0  0  0  0  0  0  0  0  0  0
    5.5555   -2.4437    9.3616 O   0  0  0  0  0  0  0  0  0  0  0  0
    6.8162   -4.6646    8.1544 O   0  0  0  0  0  0  0  0  0  0  0  0
   12.9392    0.9051    6.1714 O   0  0  0  0  0  0  0  0  0  0  0  0
   10.6571   -4.6429   11.1589 O   0  0  0  0  0  0  0  0  0  0  0  0
   12.3478   -5.2324    4.4828 N   0  0  0  0  0  0  0  0  0  0  0  0
    7.9276   -0.6099    8.5124 N   0  0  0  0  0  0  0  0  0  0  0  0
   16.6891    1.1860    3.9672 N   0  0  0  0  0  0  0  0  0  0  0  0
   11.0892   -2.3892    6.7524 C   0  0  1  0  0  0  0  0  0  0  0  0
   11.0175   -3.6706    5.8883 C   0  0  1  0  0  0  0  0  0  0  0  0
   12.4285   -4.0563    5.3728 C   0  0  2  0  0  0  0  0  0  0  0  0
   13.1057   -2.8794    4.6377 C   0  0  1  0  0  0  0  0  0  0  0  0
   11.8926   -1.3223    5.9766 C   0  0  1  0  0  0  0  0  0  0  0  0
   15.1725   -2.2904    3.4778 C   0  0  2  0  0  0  0  0  0  0  0  0
    8.9346   -2.7564    7.7816 C   0  0  1  0  0  0  0  0  0  0  0  0
   15.4144   -0.9376    4.1796 C   0  0  2  0  0  0  0  0  0  0  0  0
    7.6349   -2.0071    8.1799 C   0  0  1  0  0  0  0  0  0  0  0  0
   14.6162   -2.0116    2.0632 C   0  0  2  0  0  0  0  0  0  0  0  0
    6.9690   -2.6782    9.4219 C   0  0  2  0  0  0  0  0  0  0  0  0
   16.3874   -0.1093    3.3087 C   0  0  1  0  0  0  0  0  0  0  0  0
    7.3207   -4.1718    9.4119 C   0  0  2  0  0  0  0  0  0  0  0  0
    8.8542   -4.2813    9.5795 C   0  0  2  0  0  0  0  0  0  0  0  0
   15.7442    0.0828    1.9135 C   0  0  1  0  0  0  0  0  0  0  0  0
   12.1389   -0.0772    6.8636 C   0  0  0  0  0  0  0  0  0  0  0  0
   14.4852   -3.3268    1.2565 C   0  0  0  0  0  0  0  0  0  0  0  0
    9.2451   -4.4059   11.0671 C   0  0  0  0  0  0  0  0  0  0  0  0
    6.7784   -9.7503    3.9611 O   0  0  0  0  0  0  0  0  0  0  0  0
    5.9578  -12.3941    1.5116 O   0  0  0  0  0  0  0  0  0  0  0  0
    7.5342   -9.8178    6.1832 O   0  0  0  0  0  0  0  0  0  0  0  0
    7.7539  -12.5007    0.0453 O   0  0  0  0  0  0  0  0  0  0  0  0
    8.2731   -6.4437    7.4713 O   0  0  0  0  0  0  0  0  0  0  0  0
    6.8795  -13.9467    3.7919 O   0  0  0  0  0  0  0  0  0  0  0  0
    5.5412   -8.7182    7.8023 O   0  0  0  0  0  0  0  0  0  0  0  0
    3.8746  -13.3426   -0.5454 O   0  0  0  0  0  0  0  0  0  0  0  0
    5.3862  -11.8636   -2.7811 O   0  0  0  0  0  0  0  0  0  0  0  0
    5.7333   -8.1342    2.0050 O   0  0  0  0  0  0  0  0  0  0  0  0
   10.7186   -7.6463    7.8337 O   0  0  0  0  0  0  0  0  0  0  0  0
    7.7495  -10.7841   -3.2360 O   0  0  0  0  0  0  0  0  0  0  0  0
    6.9860  -12.6069    6.3554 N   0  0  0  0  0  0  0  0  0  0  0  0
    5.4268  -15.3243    0.7786 N   0  0  0  0  0  0  0  0  0  0  0  0
    4.6066   -5.9768    7.3013 N   0  0  0  0  0  0  0  0  0  0  0  0
    6.6210  -11.7666    2.6230 C   0  0  2  0  0  0  0  0  0  0  0  0
    6.4374  -12.5917    3.9277 C   0  0  2  0  0  0  0  0  0  0  0  0
    7.2024  -11.8990    5.0829 C   0  0  1  0  0  0  0  0  0  0  0  0
    6.6877  -10.4554    5.2038 C   0  0  2  0  0  0  0  0  0  0  0  0
    6.0118  -10.3780    2.9244 C   0  0  2  0  0  0  0  0  0  0  0  0
    7.3718   -8.3973    6.2579 C   0  0  1  0  0  0  0  0  0  0  0  0
    6.8559  -13.2776    0.8207 C   0  0  2  0  0  0  0  0  0  0  0  0
    5.9400   -7.9825    6.6435 C   0  0  2  0  0  0  0  0  0  0  0  0
    6.1209  -14.3204   -0.0556 C   0  0  2  0  0  0  0  0  0  0  0  0
    8.3844   -7.8724    7.3017 C   0  0  1  0  0  0  0  0  0  0  0  0
    5.1900  -13.5951   -1.0577 C   0  0  2  0  0  0  0  0  0  0  0  0
    5.9306   -6.4466    6.8787 C   0  0  2  0  0  0  0  0  0  0  0  0
    5.7858  -12.2280   -1.4485 C   0  0  1  0  0  0  0  0  0  0  0  0
    7.3320  -12.2876   -1.3254 C   0  0  1  0  0  0  0  0  0  0  0  0
    6.9649   -6.0845    7.9585 C   0  0  2  0  0  0  0  0  0  0  0  0
    6.1430   -9.4696    1.6879 C   0  0  0  0  0  0  0  0  0  0  0  0
    9.8236   -8.2194    6.8627 C   0  0  0  0  0  0  0  0  0  0  0  0
    7.9887  -10.9918   -1.8464 C   0  0  0  0  0  0  0  0  0  0  0  0
   -0.1330   -7.9922   -3.1414 O   0  0  0  0  0  0  0  0  0  0  0  0
   -2.6526   -7.0129   -2.3102 O   0  0  0  0  0  0  0  0  0  0  0  0
    0.0611  -10.3117   -3.1420 O   0  0  0  0  0  0  0  0  0  0  0  0
   -4.5798   -5.6637   -2.5872 O   0  0  0  0  0  0  0  0  0  0  0  0
    3.3733  -11.1270   -1.7968 O   0  0  0  0  0  0  0  0  0  0  0  0
   -2.1894   -7.9835   -5.8564 O   0  0  0  0  0  0  0  0  0  0  0  0
    1.8145  -10.0840   -5.4978 O   0  0  0  0  0  0  0  0  0  0  0  0
   -4.8491   -4.6940   -0.0906 O   0  0  0  0  0  0  0  0  0  0  0  0
   -7.5586   -5.0791   -0.5940 O   0  0  0  0  0  0  0  0  0  0  0  0
    1.1866   -5.4807   -2.9279 O   0  0  0  0  0  0  0  0  0  0  0  0
    1.8404  -11.1909    0.5363 O   0  0  0  0  0  0  0  0  0  0  0  0
   -5.9038   -6.2180   -4.8328 O   0  0  0  0  0  0  0  0  0  0  0  0
   -2.4146  -10.5961   -4.6074 N   0  0  0  0  0  0  0  0  0  0  0  0
   -3.1286   -6.8611    0.2238 N   0  0  0  0  0  0  0  0  0  0  0  0
    4.2040  -11.7206   -5.3828 N   0  0  0  0  0  0  0  0  0  0  0  0
   -2.2547   -6.9027   -3.6867 C   0  0  2  0  0  0  0  0  0  0  0  0
   -2.6715   -8.1346   -4.5168 C   0  0  2  0  0  0  0  0  0  0  0  0
   -2.0530   -9.3831   -3.8549 C   0  0  2  0  0  0  0  0  0  0  0  0
   -0.5090   -9.1955   -3.8529 C   0  0  1  0  0  0  0  0  0  0  0  0
   -0.7144   -6.8095   -3.6885 C   0  0  1  0  0  0  0  0  0  0  0  0
    1.5011  -10.2878   -3.1003 C   0  0  2  0  0  0  0  0  0  0  0  0
   -4.0623   -6.9126   -2.0732 C   0  0  2  0  0  0  0  0  0  0  0  0
    2.0994  -10.9167   -4.3687 C   0  0  2  0  0  0  0  0  0  0  0  0
   -4.3645   -7.0430   -0.5603 C   0  0  2  0  0  0  0  0  0  0  0  0
    1.9415  -11.1020   -1.8714 C   0  0  2  0  0  0  0  0  0  0  0  0
   -5.4184   -6.0103   -0.1272 C   0  0  2  0  0  0  0  0  0  0  0  0
    3.6304  -11.0419   -4.2053 C   0  0  1  0  0  0  0  0  0  0  0  0
   -6.5962   -6.0010   -1.1186 C   0  0  2  0  0  0  0  0  0  0  0  0
   -6.0262   -5.5898   -2.5061 C   0  0  2  0  0  0  0  0  0  0  0  0
    3.9512  -11.8200   -2.9225 C   0  0  1  0  0  0  0  0  0  0  0  0
   -0.2486   -5.5827   -2.8842 C   0  0  0  0  0  0  0  0  0  0  0  0
    1.3743  -10.4442   -0.5898 C   0  0  0  0  0  0  0  0  0  0  0  0
   -6.6808   -6.4039   -3.6455 C   0  0  0  0  0  0  0  0  0  0  0  0
  -12.0843   -1.9704   -1.6004 O   0  0  0  0  0  0  0  0  0  0  0  0
  -14.6691   -0.3252   -3.2554 O   0  0  0  0  0  0  0  0  0  0  0  0
  -11.3398   -3.7472   -2.9717 O   0  0  0  0  0  0  0  0  0  0  0  0
  -16.1901   -1.2728   -1.7463 O   0  0  0  0  0  0  0  0  0  0  0  0
   -9.4200   -6.1539   -1.6663 O   0  0  0  0  0  0  0  0  0  0  0  0
  -11.0676    0.1126   -2.9427 O   0  0  0  0  0  0  0  0  0  0  0  0
  -11.3419   -5.6474    0.2052 O   0  0  0  0  0  0  0  0  0  0  0  0
  -19.3958    0.7730   -3.5179 O   0  0  0  0  0  0  0  0  0  0  0  0
  -12.6334   -1.1563    0.9999 O   0  0  0  0  0  0  0  0  0  0  0  0
  -11.9654   -7.5894   -1.3685 O   0  0  0  0  0  0  0  0  0  0  0  0
  -16.3400   -2.6456    0.6214 O   0  0  0  0  0  0  0  0  0  0  0  0
  -13.1157   -2.0979   -5.0911 N   0  0  0  0  0  0  0  0  0  0  0  0
  -16.5989    1.4023   -4.2391 N   0  0  0  0  0  0  0  0  0  0  0  0
   -9.4313   -2.5955   -0.7580 N   0  0  0  0  0  0  0  0  0  0  0  0
  -13.4337   -0.1283   -2.5472 C   0  0  2  0  0  0  0  0  0  0  0  0
  -12.2892   -0.2979   -3.5649 C   0  0  2  0  0  0  0  0  0  0  0  0
  -12.1606   -1.7735   -4.0209 C   0  0  1  0  0  0  0  0  0  0  0  0
  -12.3347   -2.7162   -2.8040 C   0  0  2  0  0  0  0  0  0  0  0  0
  -13.1621   -1.0613   -1.3388 C   0  0  2  0  0  0  0  0  0  0  0  0
  -11.4833   -4.8361   -2.0397 C   0  0  2  0  0  0  0  0  0  0  0  0
  -15.8421   -0.0813   -2.4671 C   0  0  2  0  0  0  0  0  0  0  0  0
  -11.1283   -4.4772   -0.5837 C   0  0  2  0  0  0  0  0  0  0  0  0
  -17.0139    0.2592   -3.4039 C   0  0  1  0  0  0  0  0  0  0  0  0
  -10.5569   -5.9838   -2.5253 C   0  0  2  0  0  0  0  0  0  0  0  0
  -18.3187    0.5334   -2.5920 C   0  0  2  0  0  0  0  0  0  0  0  0
   -9.6373   -4.0259   -0.4737 C   0  0  1  0  0  0  0  0  0  0  0  0
  -18.6117   -0.7149   -1.7006 C   0  0  1  0  0  0  0  0  0  0  0  0
  -17.3184   -1.0574   -0.9037 C   0  0  1  0  0  0  0  0  0  0  0  0
   -8.7631   -4.9151   -1.3740 C   0  0  1  0  0  0  0  0  0  0  0  0
  -12.7950   -0.2327   -0.0798 C   0  0  0  0  0  0  0  0  0  0  0  0
  -11.3198   -7.3219   -2.6125 C   0  0  0  0  0  0  0  0  0  0  0  0
  -17.5617   -2.3150   -0.0561 C   0  0  0  0  0  0  0  0  0  0  0  0
   13.5160   -4.1874    1.8814 O   0  0  0  0  0  0  0  0  0  0  0  0
  -24.8322    2.7940   -5.9923 O   0  0  0  0  0  0  0  0  0  0  0  0
  -22.7606    1.1218   -3.3707 O   0  0  0  0  0  0  0  0  0  0  0  0
  -25.4762    5.0180   -6.3272 O   0  0  0  0  0  0  0  0  0  0  0  0
  -23.5866   -0.2342   -1.5858 O   0  0  0  0  0  0  0  0  0  0  0  0
  -27.6653    5.4486   -9.1910 O   0  0  0  0  0  0  0  0  0  0  0  0
  -23.1035    3.8478   -2.3496 O   0  0  0  0  0  0  0  0  0  0  0  0
  -23.7264    4.1802   -8.6693 O   0  0  0  0  0  0  0  0  0  0  0  0
  -19.6365   -0.5899   -0.6911 O   0  0  0  0  0  0  0  0  0  0  0  0
  -20.9938   -1.0189   -3.4992 O   0  0  0  0  0  0  0  0  0  0  0  0
  -27.3711    5.8129  -11.4440 O   0  0  0  0  0  0  0  0  0  0  0  0
  -24.6217    0.3468   -7.1890 O   0  0  0  0  0  0  0  0  0  0  0  0
  -29.3958    5.9355   -7.0118 O   0  0  0  0  0  0  0  0  0  0  0  0
  -23.3064   -2.9328   -0.3396 O   0  0  0  0  0  0  0  0  0  0  0  0
  -23.8491    5.8888   -4.2162 N   0  0  0  0  0  0  0  0  0  0  0  0
  -21.5077    1.7238   -0.0475 N   0  0  0  0  0  0  0  0  0  0  0  0
  -24.4778    5.3522  -11.1324 N   0  0  0  0  0  0  0  0  0  0  0  0
  -23.6855    2.0858   -3.9312 C   0  0  1  0  0  0  0  0  0  0  0  0
  -23.1991    3.5385   -3.7362 C   0  0  1  0  0  0  0  0  0  0  0  0
  -24.2403    4.4797   -4.3633 C   0  0  2  0  0  0  0  0  0  0  0  0
  -24.4146    4.1603   -5.8630 C   0  0  1  0  0  0  0  0  0  0  0  0
  -23.8581    1.8902   -5.4572 C   0  0  1  0  0  0  0  0  0  0  0  0
  -25.8994    4.7371   -7.6648 C   0  0  2  0  0  0  0  0  0  0  0  0
  -22.8821    0.9703   -1.9437 C   0  0  1  0  0  0  0  0  0  0  0  0
  -24.8343    5.0965   -8.7279 C   0  0  2  0  0  0  0  0  0  0  0  0
  -21.4606    0.9962   -1.3315 C   0  0  2  0  0  0  0  0  0  0  0  0
  -27.1561    5.6029   -7.8584 C   0  0  2  0  0  0  0  0  0  0  0  0
  -21.0103   -0.4625   -1.1131 C   0  0  1  0  0  0  0  0  0  0  0  0
  -25.4803    4.9916  -10.1271 C   0  0  1  0  0  0  0  0  0  0  0  0
  -21.5026   -1.4213   -2.2254 C   0  0  1  0  0  0  0  0  0  0  0  0
  -23.0555   -1.3773   -2.2759 C   0  0  1  0  0  0  0  0  0  0  0  0
  -26.7190    5.9134  -10.1827 C   0  0  2  0  0  0  0  0  0  0  0  0
  -24.2975    0.4600   -5.7906 C   0  0  0  0  0  0  0  0  0  0  0  0
  -28.2259    5.1356   -6.8288 C   0  0  0  0  0  0  0  0  0  0  0  0
  -23.6857   -2.6779   -1.7049 C   0  0  0  0  0  0  0  0  0  0  0  0
    5.4392   16.5991    0.4047 H   0  0  0  0  0  0  0  0  0  0  0  0
    9.5743   21.3482    3.7046 H   0  0  0  0  0  0  0  0  0  0  0  0
   10.5629   12.2167   -0.3536 H   0  0  0  0  0  0  0  0  0  0  0  0
   10.6440   21.5675    8.6589 H   0  0  0  0  0  0  0  0  0  0  0  0
   12.1521   15.0352    3.8125 H   0  0  0  0  0  0  0  0  0  0  0  0
    7.5430   15.8776    8.7203 H   0  0  0  0  0  0  0  0  0  0  0  0
    4.4042    9.9428   -0.1446 H   0  0  0  0  0  0  0  0  0  0  0  0
    6.3629   19.0403    1.5362 H   0  0  0  0  0  0  0  0  0  0  0  0
    5.5532   18.7704    3.0847 H   0  0  0  0  0  0  0  0  0  0  0  0
   10.5096   13.7966   -2.9803 H   0  0  0  0  0  0  0  0  0  0  0  0
   10.6575   14.3745   -1.3004 H   0  0  0  0  0  0  0  0  0  0  0  0
   10.9595   22.5098    6.5197 H   0  0  0  0  0  0  0  0  0  0  0  0
    9.2083   22.6794    6.3074 H   0  0  0  0  0  0  0  0  0  0  0  0
    7.8808   14.6339    2.0599 H   0  0  0  0  0  0  0  0  0  0  0  0
    7.6993   17.2456    0.4316 H   0  0  0  0  0  0  0  0  0  0  0  0
    6.3333   16.4879    3.1154 H   0  0  0  0  0  0  0  0  0  0  0  0
    8.5469   18.5350    2.6916 H   0  0  0  0  0  0  0  0  0  0  0  0
    9.9709   16.8428    1.6462 H   0  0  0  0  0  0  0  0  0  0  0  0
    9.6276   18.1328    5.2177 H   0  0  0  0  0  0  0  0  0  0  0  0
    7.3250   14.9041   -1.0525 H   0  0  0  0  0  0  0  0  0  0  0  0
    7.9313   20.6972    5.2955 H   0  0  0  0  0  0  0  0  0  0  0  0
    8.1145   13.6041   -2.7140 H   0  0  0  0  0  0  0  0  0  0  0  0
    7.3348   18.9899    7.0532 H   0  0  0  0  0  0  0  0  0  0  0  0
    9.5771   11.6356   -2.4045 H   0  0  0  0  0  0  0  0  0  0  0  0
   10.8759   20.1916    5.9834 H   0  0  0  0  0  0  0  0  0  0  0  0
    7.2072   11.0603   -2.4076 H   0  0  0  0  0  0  0  0  0  0  0  0
    6.0219   12.8243   -1.4393 H   0  0  0  0  0  0  0  0  0  0  0  0
    8.5365   20.8543    7.9006 H   0  0  0  0  0  0  0  0  0  0  0  0
   10.0593   14.1646    3.1809 H   0  0  0  0  0  0  0  0  0  0  0  0
   11.0508   14.6328    1.7616 H   0  0  0  0  0  0  0  0  0  0  0  0
    7.2393   16.5455    6.4704 H   0  0  0  0  0  0  0  0  0  0  0  0
    8.9731   16.4392    6.9192 H   0  0  0  0  0  0  0  0  0  0  0  0
    6.1905   10.9743    1.0105 H   0  0  0  0  0  0  0  0  0  0  0  0
    4.8914   12.1178    0.6089 H   0  0  0  0  0  0  0  0  0  0  0  0
   10.6245    1.0080   -4.2445 H   0  0  0  0  0  0  0  0  0  0  0  0
    8.7111    5.3586    0.2605 H   0  0  0  0  0  0  0  0  0  0  0  0
   17.6189   -0.5494   -1.5630 H   0  0  0  0  0  0  0  0  0  0  0  0
   15.4590    6.7973   -2.7942 H   0  0  0  0  0  0  0  0  0  0  0  0
   10.8448    9.8714   -5.6251 H   0  0  0  0  0  0  0  0  0  0  0  0
   14.4700    5.0576    1.3332 H   0  0  0  0  0  0  0  0  0  0  0  0
    8.5014    3.8151   -3.8483 H   0  0  0  0  0  0  0  0  0  0  0  0
    9.1438    2.8636   -2.5099 H   0  0  0  0  0  0  0  0  0  0  0  0
   14.1494   -0.9365   -3.0918 H   0  0  0  0  0  0  0  0  0  0  0  0
   15.8216   -1.1855   -3.6083 H   0  0  0  0  0  0  0  0  0  0  0  0
    6.6693    7.4596    0.1508 H   0  0  0  0  0  0  0  0  0  0  0  0
    7.5827    8.4713    1.2525 H   0  0  0  0  0  0  0  0  0  0  0  0
   13.0457    3.4639   -4.8869 H   0  0  0  0  0  0  0  0  0  0  0  0
   11.5558    2.2313   -2.4881 H   0  0  0  0  0  0  0  0  0  0  0  0
   10.6263    3.8602   -4.9195 H   0  0  0  0  0  0  0  0  0  0  0  0
   10.8104    4.5756   -1.9535 H   0  0  0  0  0  0  0  0  0  0  0  0
   13.1739    4.2631   -1.9210 H   0  0  0  0  0  0  0  0  0  0  0  0
   10.8564    7.1230   -1.9988 H   0  0  0  0  0  0  0  0  0  0  0  0
   13.4787    1.1970   -2.0498 H   0  0  0  0  0  0  0  0  0  0  0  0
    7.9127    6.2842   -1.7029 H   0  0  0  0  0  0  0  0  0  0  0  0
   16.4157    1.0667   -2.9515 H   0  0  0  0  0  0  0  0  0  0  0  0
    8.5195    7.9180   -3.7785 H   0  0  0  0  0  0  0  0  0  0  0  0
   14.8881   -0.4458   -0.7568 H   0  0  0  0  0  0  0  0  0  0  0  0
    9.5648    8.1896    0.0616 H   0  0  0  0  0  0  0  0  0  0  0  0
   17.0522    1.7179   -0.7051 H   0  0  0  0  0  0  0  0  0  0  0  0
   14.1380    1.7485    0.1974 H   0  0  0  0  0  0  0  0  0  0  0  0
    7.2627    8.7122   -1.9129 H   0  0  0  0  0  0  0  0  0  0  0  0
   15.4041    4.4762   -3.1379 H   0  0  0  0  0  0  0  0  0  0  0  0
   14.5701    5.4238   -4.4113 H   0  0  0  0  0  0  0  0  0  0  0  0
   11.4435    8.8541   -3.6049 H   0  0  0  0  0  0  0  0  0  0  0  0
   10.7833    7.6943   -4.8375 H   0  0  0  0  0  0  0  0  0  0  0  0
   15.6475    3.1038    1.6993 H   0  0  0  0  0  0  0  0  0  0  0  0
   16.2846    3.9664    0.2579 H   0  0  0  0  0  0  0  0  0  0  0  0
   10.4940   -5.5585    6.1987 H   0  0  0  0  0  0  0  0  0  0  0  0
   16.0035   -0.3241    5.9563 H   0  0  0  0  0  0  0  0  0  0  0  0
    5.1262   -2.8174   10.1229 H   0  0  0  0  0  0  0  0  0  0  0  0
   12.9911    1.7111    6.6726 H   0  0  0  0  0  0  0  0  0  0  0  0
   10.9101   -4.7387   12.0699 H   0  0  0  0  0  0  0  0  0  0  0  0
   13.3369   -5.5758    4.2449 H   0  0  0  0  0  0  0  0  0  0  0  0
   11.8138   -4.9897    3.5756 H   0  0  0  0  0  0  0  0  0  0  0  0
    7.0345   -0.1314    8.8824 H   0  0  0  0  0  0  0  0  0  0  0  0
    8.2897   -0.0812    7.6396 H   0  0  0  0  0  0  0  0  0  0  0  0
   15.8287    1.8306    3.9534 H   0  0  0  0  0  0  0  0  0  0  0  0
   17.5278    1.6684    3.4895 H   0  0  0  0  0  0  0  0  0  0  0  0
   11.6281   -2.6390    7.6807 H   0  0  0  0  0  0  0  0  0  0  0  0
   10.3306   -3.5007    5.0450 H   0  0  0  0  0  0  0  0  0  0  0  0
   13.0505   -4.3234    6.2399 H   0  0  0  0  0  0  0  0  0  0  0  0
   12.5195   -2.6037    3.7537 H   0  0  0  0  0  0  0  0  0  0  0  0
   11.3262   -1.0093    5.0833 H   0  0  0  0  0  0  0  0  0  0  0  0
   16.1695   -2.7364    3.3499 H   0  0  0  0  0  0  0  0  0  0  0  0
    8.6510   -3.5953    7.1317 H   0  0  0  0  0  0  0  0  0  0  0  0
   14.4615   -0.3923    4.2378 H   0  0  0  0  0  0  0  0  0  0  0  0
    6.9483   -2.0309    7.3152 H   0  0  0  0  0  0  0  0  0  0  0  0
   13.6500   -1.4969    2.1253 H   0  0  0  0  0  0  0  0  0  0  0  0
    7.3650   -2.2503   10.3641 H   0  0  0  0  0  0  0  0  0  0  0  0
   17.3398   -0.6469    3.2123 H   0  0  0  0  0  0  0  0  0  0  0  0
    6.8075   -4.7022   10.2234 H   0  0  0  0  0  0  0  0  0  0  0  0
    9.1879   -5.2343    9.1334 H   0  0  0  0  0  0  0  0  0  0  0  0
   14.8014    0.6221    2.0361 H   0  0  0  0  0  0  0  0  0  0  0  0
   11.1580    0.3516    7.1294 H   0  0  0  0  0  0  0  0  0  0  0  0
   12.6799   -0.3615    7.7870 H   0  0  0  0  0  0  0  0  0  0  0  0
   15.4513   -3.8536    1.2251 H   0  0  0  0  0  0  0  0  0  0  0  0
   14.1594   -3.0880    0.2341 H   0  0  0  0  0  0  0  0  0  0  0  0
    8.9727   -3.4827   11.6021 H   0  0  0  0  0  0  0  0  0  0  0  0
    8.7189   -5.2654   11.5135 H   0  0  0  0  0  0  0  0  0  0  0  0
    6.6567  -14.4642    4.5577 H   0  0  0  0  0  0  0  0  0  0  0  0
    4.6245   -8.5697    8.0066 H   0  0  0  0  0  0  0  0  0  0  0  0
    3.3925  -14.1390   -0.3636 H   0  0  0  0  0  0  0  0  0  0  0  0
    5.7683   -7.6024    1.2172 H   0  0  0  0  0  0  0  0  0  0  0  0
   11.6160   -7.8530    7.5996 H   0  0  0  0  0  0  0  0  0  0  0  0
    8.2008  -10.0043   -3.5388 H   0  0  0  0  0  0  0  0  0  0  0  0
    7.1591  -11.9519    7.1940 H   0  0  0  0  0  0  0  0  0  0  0  0
    7.6436  -13.4576    6.4309 H   0  0  0  0  0  0  0  0  0  0  0  0
    4.9183  -16.0289    0.1573 H   0  0  0  0  0  0  0  0  0  0  0  0
    4.7138  -14.8424    1.4397 H   0  0  0  0  0  0  0  0  0  0  0  0
    4.3857   -6.2968    8.3060 H   0  0  0  0  0  0  0  0  0  0  0  0
    3.8571   -6.3188    6.6131 H   0  0  0  0  0  0  0  0  0  0  0  0
    7.6838  -11.6023    2.3815 H   0  0  0  0  0  0  0  0  0  0  0  0
    5.3576  -12.6340    4.1530 H   0  0  0  0  0  0  0  0  0  0  0  0
    8.2746  -11.8754    4.8461 H   0  0  0  0  0  0  0  0  0  0  0  0
    5.6405  -10.4749    5.5555 H   0  0  0  0  0  0  0  0  0  0  0  0
    4.9585  -10.4563    3.2232 H   0  0  0  0  0  0  0  0  0  0  0  0
    7.6363   -7.9475    5.2968 H   0  0  0  0  0  0  0  0  0  0  0  0
    7.4620  -13.8481    1.5458 H   0  0  0  0  0  0  0  0  0  0  0  0
    5.2830   -8.2319    5.7903 H   0  0  0  0  0  0  0  0  0  0  0  0
    6.8667  -14.8956   -0.6154 H   0  0  0  0  0  0  0  0  0  0  0  0
    8.1865   -8.3795    8.2663 H   0  0  0  0  0  0  0  0  0  0  0  0
    5.1491  -14.2225   -1.9604 H   0  0  0  0  0  0  0  0  0  0  0  0
    6.1814   -5.9419    5.9376 H   0  0  0  0  0  0  0  0  0  0  0  0
    5.4505  -11.4745   -0.7291 H   0  0  0  0  0  0  0  0  0  0  0  0
    7.7152  -13.1214   -1.9425 H   0  0  0  0  0  0  0  0  0  0  0  0
    6.7289   -6.6180    8.8982 H   0  0  0  0  0  0  0  0  0  0  0  0
    7.1833   -9.4750    1.3576 H   0  0  0  0  0  0  0  0  0  0  0  0
    5.5048   -9.8524    0.8861 H   0  0  0  0  0  0  0  0  0  0  0  0
    9.9661   -9.3098    6.8316 H   0  0  0  0  0  0  0  0  0  0  0  0
   10.0368   -7.8093    5.8631 H   0  0  0  0  0  0  0  0  0  0  0  0
    7.6031  -10.1297   -1.2764 H   0  0  0  0  0  0  0  0  0  0  0  0
    9.0696  -11.0671   -1.6766 H   0  0  0  0  0  0  0  0  0  0  0  0
   -2.4608   -8.7332   -6.3740 H   0  0  0  0  0  0  0  0  0  0  0  0
    2.1181  -10.4764   -6.3082 H   0  0  0  0  0  0  0  0  0  0  0  0
   -5.4894   -4.0492    0.1913 H   0  0  0  0  0  0  0  0  0  0  0  0
    1.5098   -4.7056   -2.4811 H   0  0  0  0  0  0  0  0  0  0  0  0
    1.5161  -10.7857    1.3332 H   0  0  0  0  0  0  0  0  0  0  0  0
   -6.2786   -6.7248   -5.5442 H   0  0  0  0  0  0  0  0  0  0  0  0
   -3.4923  -10.7089   -4.6078 H   0  0  0  0  0  0  0  0  0  0  0  0
   -1.9832  -11.4630   -4.1324 H   0  0  0  0  0  0  0  0  0  0  0  0
   -3.3504   -7.0283    1.2600 H   0  0  0  0  0  0  0  0  0  0  0  0
   -2.7553   -5.8513    0.1034 H   0  0  0  0  0  0  0  0  0  0  0  0
    3.7881  -12.7086   -5.4492 H   0  0  0  0  0  0  0  0  0  0  0  0
    5.2680  -11.7928   -5.2616 H   0  0  0  0  0  0  0  0  0  0  0  0
   -2.6671   -5.9886   -4.1493 H   0  0  0  0  0  0  0  0  0  0  0  0
   -3.7722   -8.2033   -4.5689 H   0  0  0  0  0  0  0  0  0  0  0  0
   -2.4179   -9.4610   -2.8199 H   0  0  0  0  0  0  0  0  0  0  0  0
   -0.1839   -9.1350   -4.9021 H   0  0  0  0  0  0  0  0  0  0  0  0
   -0.3638   -6.6626   -4.7132 H   0  0  0  0  0  0  0  0  0  0  0  0
    1.8864   -9.2574   -2.9883 H   0  0  0  0  0  0  0  0  0  0  0  0
   -4.5752   -7.7411   -2.5764 H   0  0  0  0  0  0  0  0  0  0  0  0
    1.6540  -11.9234   -4.5196 H   0  0  0  0  0  0  0  0  0  0  0  0
   -4.7497   -8.0466   -0.3600 H   0  0  0  0  0  0  0  0  0  0  0  0
    1.5379  -12.1243   -1.9140 H   0  0  0  0  0  0  0  0  0  0  0  0
   -5.7677   -6.2543    0.8865 H   0  0  0  0  0  0  0  0  0  0  0  0
    4.0596  -10.0365   -4.1510 H   0  0  0  0  0  0  0  0  0  0  0  0
   -7.0299   -7.0186   -1.1323 H   0  0  0  0  0  0  0  0  0  0  0  0
   -6.2529   -4.5257   -2.7230 H   0  0  0  0  0  0  0  0  0  0  0  0
    3.5533  -12.8424   -3.0071 H   0  0  0  0  0  0  0  0  0  0  0  0
   -0.6416   -4.6711   -3.3582 H   0  0  0  0  0  0  0  0  0  0  0  0
   -0.5700   -5.6624   -1.8348 H   0  0  0  0  0  0  0  0  0  0  0  0
    1.7043   -9.3998   -0.4976 H   0  0  0  0  0  0  0  0  0  0  0  0
    0.2758  -10.4428   -0.5557 H   0  0  0  0  0  0  0  0  0  0  0  0
   -6.7010   -7.4763   -3.4094 H   0  0  0  0  0  0  0  0  0  0  0  0
   -7.7101   -6.0827   -3.8265 H   0  0  0  0  0  0  0  0  0  0  0  0
  -10.3398    0.0837   -3.5529 H   0  0  0  0  0  0  0  0  0  0  0  0
  -11.1976   -5.4310    1.1178 H   0  0  0  0  0  0  0  0  0  0  0  0
  -19.3003    1.6050   -3.9688 H   0  0  0  0  0  0  0  0  0  0  0  0
  -12.4738   -0.6949    1.8154 H   0  0  0  0  0  0  0  0  0  0  0  0
  -12.5022   -8.3716   -1.4141 H   0  0  0  0  0  0  0  0  0  0  0  0
  -16.4599   -3.4510    1.1121 H   0  0  0  0  0  0  0  0  0  0  0  0
  -14.1309   -2.0268   -4.7247 H   0  0  0  0  0  0  0  0  0  0  0  0
  -12.9173   -3.0952   -5.4540 H   0  0  0  0  0  0  0  0  0  0  0  0
  -16.5711    2.3008   -3.6355 H   0  0  0  0  0  0  0  0  0  0  0  0
  -17.2688    1.5259   -5.0800 H   0  0  0  0  0  0  0  0  0  0  0  0
  -10.0466   -1.9922   -0.1139 H   0  0  0  0  0  0  0  0  0  0  0  0
   -9.6423   -2.3548   -1.7952 H   0  0  0  0  0  0  0  0  0  0  0  0
  -13.4053    0.9189   -2.2160 H   0  0  0  0  0  0  0  0  0  0  0  0
  -12.4427    0.3711   -4.4286 H   0  0  0  0  0  0  0  0  0  0  0  0
  -11.1530   -1.9145   -4.4451 H   0  0  0  0  0  0  0  0  0  0  0  0
  -13.3428   -3.1336   -2.7480 H   0  0  0  0  0  0  0  0  0  0  0  0
  -14.0619   -1.6302   -1.1022 H   0  0  0  0  0  0  0  0  0  0  0  0
  -12.5197   -5.1845   -2.0680 H   0  0  0  0  0  0  0  0  0  0  0  0
  -15.6794    0.7717   -1.7895 H   0  0  0  0  0  0  0  0  0  0  0  0
  -11.8151   -3.7125   -0.1807 H   0  0  0  0  0  0  0  0  0  0  0  0
  -17.1474   -0.6244   -4.0583 H   0  0  0  0  0  0  0  0  0  0  0  0
  -10.1901   -5.7331   -3.5333 H   0  0  0  0  0  0  0  0  0  0  0  0
  -18.1590    1.4200   -1.9717 H   0  0  0  0  0  0  0  0  0  0  0  0
   -9.3516   -4.1765    0.5780 H   0  0  0  0  0  0  0  0  0  0  0  0
  -18.8224   -1.5681   -2.3587 H   0  0  0  0  0  0  0  0  0  0  0  0
  -17.1067   -0.2523   -0.2003 H   0  0  0  0  0  0  0  0  0  0  0  0
   -8.5533   -4.3777   -2.3069 H   0  0  0  0  0  0  0  0  0  0  0  0
  -11.8744    0.3649   -0.2683 H   0  0  0  0  0  0  0  0  0  0  0  0
  -13.6105    0.4758    0.1664 H   0  0  0  0  0  0  0  0  0  0  0  0
  -12.0657   -7.2593   -3.4262 H   0  0  0  0  0  0  0  0  0  0  0  0
  -10.6021   -8.1284   -2.8447 H   0  0  0  0  0  0  0  0  0  0  0  0
  -18.3602   -2.1648    0.6830 H   0  0  0  0  0  0  0  0  0  0  0  0
  -17.8525   -3.1415   -0.7133 H   0  0  0  0  0  0  0  0  0  0  0  0
   13.4330   -5.0000    1.3952 H   0  0  0  0  0  0  0  0  0  0  0  0
  -22.8342    4.7503   -2.2189 H   0  0  0  0  0  0  0  0  0  0  0  0
  -23.0758    4.3827   -9.3316 H   0  0  0  0  0  0  0  0  0  0  0  0
  -21.2530   -1.6102   -4.1950 H   0  0  0  0  0  0  0  0  0  0  0  0
  -26.7955    6.1082  -12.1385 H   0  0  0  0  0  0  0  0  0  0  0  0
  -24.9362   -0.5308   -7.3759 H   0  0  0  0  0  0  0  0  0  0  0  0
  -30.0969    5.6525   -6.4358 H   0  0  0  0  0  0  0  0  0  0  0  0
  -23.5202   -2.1965    0.2216 H   0  0  0  0  0  0  0  0  0  0  0  0
  -24.6459    6.5172   -4.5721 H   0  0  0  0  0  0  0  0  0  0  0  0
  -22.9541    6.0939   -4.7767 H   0  0  0  0  0  0  0  0  0  0  0  0
  -20.5432    1.6928    0.4262 H   0  0  0  0  0  0  0  0  0  0  0  0
  -22.2547    1.3113    0.6060 H   0  0  0  0  0  0  0  0  0  0  0  0
  -24.3327    6.4206  -11.1502 H   0  0  0  0  0  0  0  0  0  0  0  0
  -24.7670    4.9907  -12.1101 H   0  0  0  0  0  0  0  0  0  0  0  0
  -24.6778    1.9378   -3.4711 H   0  0  0  0  0  0  0  0  0  0  0  0
  -22.2186    3.6835   -4.2097 H   0  0  0  0  0  0  0  0  0  0  0  0
  -25.2058    4.3524   -3.8422 H   0  0  0  0  0  0  0  0  0  0  0  0
  -23.4787    4.3673   -6.4097 H   0  0  0  0  0  0  0  0  0  0  0  0
  -22.8931    2.0725   -5.9642 H   0  0  0  0  0  0  0  0  0  0  0  0
  -26.1779    3.6799   -7.7725 H   0  0  0  0  0  0  0  0  0  0  0  0
  -23.4555    1.7803   -1.4971 H   0  0  0  0  0  0  0  0  0  0  0  0
  -24.4371    6.1166   -8.5591 H   0  0  0  0  0  0  0  0  0  0  0  0
  -20.8110    1.5981   -1.9760 H   0  0  0  0  0  0  0  0  0  0  0  0
  -26.9136    6.6607   -7.6637 H   0  0  0  0  0  0  0  0  0  0  0  0
  -21.5490   -0.7906   -0.2179 H   0  0  0  0  0  0  0  0  0  0  0  0
  -25.7704    3.9344  -10.2844 H   0  0  0  0  0  0  0  0  0  0  0  0
  -21.1631   -2.4478   -1.9878 H   0  0  0  0  0  0  0  0  0  0  0  0
  -23.3824   -1.3224   -3.3213 H   0  0  0  0  0  0  0  0  0  0  0  0
  -26.4464    6.9674   -9.9985 H   0  0  0  0  0  0  0  0  0  0  0  0
  -23.5120   -0.2881   -5.5493 H   0  0  0  0  0  0  0  0  0  0  0  0
  -25.2170    0.2295   -5.2117 H   0  0  0  0  0  0  0  0  0  0  0  0
  -28.4815    4.0776   -7.0233 H   0  0  0  0  0  0  0  0  0  0  0  0
  -27.8539    5.2423   -5.7923 H   0  0  0  0  0  0  0  0  0  0  0  0
  -24.7742   -2.6216   -1.7547 H   0  0  0  0  0  0  0  0  0  0  0  0
  -23.3467   -3.5375   -2.3063 H   0  0  0  0  0  0  0  0  0  0  0  0
  1 20  1  0  0  0  0
  1 21  1  0  0  0  0
  2 17  1  0  0  0  0
  3 22  1  0  0  0  0
  4 23  1  0  0  0  0
  4 30  1  0  0  0  0
  5 26  1  0  0  0  0
  5 31  1  0  0  0  0
  6233  1  0  0  0  0
  7 24  1  0  0  0  0
  7234  1  0  0  0  0
  8235  1  0  0  0  0
  9 64  1  0  0  0  0
 10 31  1  0  0  0  0
 10236  1  0  0  0  0
 11 32  1  0  0  0  0
 11237  1  0  0  0  0
 12 33  1  0  0  0  0
 12238  1  0  0  0  0
 13 34  1  0  0  0  0
 13239  1  0  0  0  0
 14 19  1  0  0  0  0
 14240  1  0  0  0  0
 14241  1  0  0  0  0
 15242  1  0  0  0  0
 15243  1  0  0  0  0
 16 28  1  0  0  0  0
 16244  1  0  0  0  0
 16245  1  0  0  0  0
 17 18  1  0  0  0  0
 17 21  1  0  0  0  0
 17246  1  1  0  0  0
 18  6  1  0  0  0  0
 18 19  1  0  0  0  0
 18247  1  6  0  0  0
 19 20  1  0  0  0  0
 19248  1  1  0  0  0
 20  3  1  0  0  0  0
 20249  1  6  0  0  0
 21 32  1  0  0  0  0
 21250  1  6  0  0  0
 22 24  1  0  0  0  0
 22 26  1  0  0  0  0
 22251  1  6  0  0  0
 23  2  1  0  0  0  0
 23 25  1  0  0  0  0
 23252  1  6  0  0  0
 24 28  1  0  0  0  0
 24253  1  1  0  0  0
 25 15  1  0  0  0  0
 25 27  1  0  0  0  0
 25254  1  6  0  0  0
 26 33  1  0  0  0  0
 26255  1  1  0  0  0
 27  8  1  0  0  0  0
 27 29  1  0  0  0  0
 27256  1  6  0  0  0
 28 31  1  0  0  0  0
 28257  1  6  0  0  0
 29  9  1  0  0  0  0
 29 30  1  0  0  0  0
 29258  1  6  0  0  0
 30 34  1  0  0  0  0
 30259  1  6  0  0  0
 31260  1  1  0  0  0
 32261  1  0  0  0  0
 32262  1  0  0  0  0
 33263  1  0  0  0  0
 33264  1  0  0  0  0
 34265  1  0  0  0  0
 34266  1  0  0  0  0
 35 53  1  0  0  0  0
 35 54  1  0  0  0  0
 36 50  1  0  0  0  0
 37 55  1  0  0  0  0
 38 56  1  0  0  0  0
 38 63  1  0  0  0  0
 39 59  1  0  0  0  0
 39 64  1  0  0  0  0
 40267  1  0  0  0  0
 41 57  1  0  0  0  0
 41268  1  0  0  0  0
 42269  1  0  0  0  0
 43 96  1  0  0  0  0
 44 65  1  0  0  0  0
 44270  1  0  0  0  0
 45 66  1  0  0  0  0
 45271  1  0  0  0  0
 46 67  1  0  0  0  0
 46272  1  0  0  0  0
 47 52  1  0  0  0  0
 47273  1  0  0  0  0
 47274  1  0  0  0  0
 48275  1  0  0  0  0
 48276  1  0  0  0  0
 49 61  1  0  0  0  0
 49277  1  0  0  0  0
 49278  1  0  0  0  0
 50 51  1  0  0  0  0
 50 54  1  0  0  0  0
 50279  1  6  0  0  0
 51 40  1  0  0  0  0
 51 52  1  0  0  0  0
 51280  1  1  0  0  0
 52 53  1  0  0  0  0
 52281  1  6  0  0  0
 53 37  1  0  0  0  0
 53282  1  1  0  0  0
 54 65  1  0  0  0  0
 54283  1  1  0  0  0
 55 57  1  0  0  0  0
 55 59  1  0  0  0  0
 55284  1  1  0  0  0
 56 36  1  0  0  0  0
 56 58  1  0  0  0  0
 56285  1  1  0  0  0
 57 61  1  0  0  0  0
 57286  1  6  0  0  0
 58 48  1  0  0  0  0
 58 60  1  0  0  0  0
 58287  1  6  0  0  0
 59 66  1  0  0  0  0
 59288  1  6  0  0  0
 60 42  1  0  0  0  0
 60 62  1  0  0  0  0
 60289  1  1  0  0  0
 61 64  1  0  0  0  0
 61290  1  1  0  0  0
 62 43  1  0  0  0  0
 62 63  1  0  0  0  0
 62291  1  6  0  0  0
 63 67  1  0  0  0  0
 63292  1  1  0  0  0
 64293  1  6  0  0  0
 65294  1  0  0  0  0
 65295  1  0  0  0  0
 66296  1  0  0  0  0
 66297  1  0  0  0  0
 67298  1  0  0  0  0
 67299  1  0  0  0  0
 68 85  1  0  0  0  0
 68 86  1  0  0  0  0
 69 82  1  0  0  0  0
 70 87  1  0  0  0  0
 71 88  1  0  0  0  0
 71 95  1  0  0  0  0
 72 91  1  0  0  0  0
 72 96  1  0  0  0  0
 73300  1  0  0  0  0
 74 89  1  0  0  0  0
 74301  1  0  0  0  0
 75302  1  0  0  0  0
 76129  1  0  0  0  0
 77 97  1  0  0  0  0
 77303  1  0  0  0  0
 78 99  1  0  0  0  0
 78304  1  0  0  0  0
 79 84  1  0  0  0  0
 79305  1  0  0  0  0
 79306  1  0  0  0  0
 80307  1  0  0  0  0
 80308  1  0  0  0  0
 81 93  1  0  0  0  0
 81309  1  0  0  0  0
 81310  1  0  0  0  0
 82 83  1  0  0  0  0
 82 86  1  0  0  0  0
 82311  1  1  0  0  0
 83 73  1  0  0  0  0
 83 84  1  0  0  0  0
 83312  1  6  0  0  0
 84 85  1  0  0  0  0
 84313  1  1  0  0  0
 85 70  1  0  0  0  0
 85314  1  6  0  0  0
 86 97  1  0  0  0  0
 86315  1  6  0  0  0
 87 89  1  0  0  0  0
 87 91  1  0  0  0  0
 87316  1  6  0  0  0
 88 69  1  0  0  0  0
 88 90  1  0  0  0  0
 88317  1  6  0  0  0
 89 93  1  0  0  0  0
 89318  1  1  0  0  0
 90 80  1  0  0  0  0
 90 92  1  0  0  0  0
 90319  1  6  0  0  0
 91 98  1  0  0  0  0
 91320  1  1  0  0  0
 92 75  1  0  0  0  0
 92 94  1  0  0  0  0
 92321  1  1  0  0  0
 93 96  1  0  0  0  0
 93322  1  6  0  0  0
 94 76  1  0  0  0  0
 94 95  1  0  0  0  0
 94323  1  1  0  0  0
 95 99  1  0  0  0  0
 95324  1  6  0  0  0
 96325  1  1  0  0  0
 97326  1  0  0  0  0
 97327  1  0  0  0  0
 98198  1  0  0  0  0
 98328  1  0  0  0  0
 98329  1  0  0  0  0
 99330  1  0  0  0  0
 99331  1  0  0  0  0
100118  1  0  0  0  0
100119  1  0  0  0  0
101115  1  0  0  0  0
102120  1  0  0  0  0
103121  1  0  0  0  0
103128  1  0  0  0  0
104124  1  0  0  0  0
104129  1  0  0  0  0
105332  1  0  0  0  0
106122  1  0  0  0  0
106333  1  0  0  0  0
107334  1  0  0  0  0
108162  1  0  0  0  0
109130  1  0  0  0  0
109335  1  0  0  0  0
110131  1  0  0  0  0
110336  1  0  0  0  0
111132  1  0  0  0  0
111337  1  0  0  0  0
112117  1  0  0  0  0
112338  1  0  0  0  0
112339  1  0  0  0  0
113340  1  0  0  0  0
113341  1  0  0  0  0
114126  1  0  0  0  0
114342  1  0  0  0  0
114343  1  0  0  0  0
115116  1  0  0  0  0
115119  1  0  0  0  0
115344  1  6  0  0  0
116105  1  0  0  0  0
116117  1  0  0  0  0
116345  1  1  0  0  0
117118  1  0  0  0  0
117346  1  6  0  0  0
118102  1  0  0  0  0
118347  1  1  0  0  0
119130  1  0  0  0  0
119348  1  1  0  0  0
120122  1  0  0  0  0
120124  1  0  0  0  0
120349  1  6  0  0  0
121101  1  0  0  0  0
121123  1  0  0  0  0
121350  1  1  0  0  0
122126  1  0  0  0  0
122351  1  6  0  0  0
123113  1  0  0  0  0
123125  1  0  0  0  0
123352  1  6  0  0  0
124131  1  0  0  0  0
124353  1  1  0  0  0
125107  1  0  0  0  0
125127  1  0  0  0  0
125354  1  6  0  0  0
126129  1  0  0  0  0
126355  1  6  0  0  0
127108  1  0  0  0  0
127128  1  0  0  0  0
127356  1  1  0  0  0
128132  1  0  0  0  0
128357  1  6  0  0  0
129358  1  1  0  0  0
130359  1  0  0  0  0
130360  1  0  0  0  0
131361  1  0  0  0  0
131362  1  0  0  0  0
132363  1  0  0  0  0
132364  1  0  0  0  0
133151  1  0  0  0  0
133152  1  0  0  0  0
134148  1  0  0  0  0
135153  1  0  0  0  0
136154  1  0  0  0  0
136161  1  0  0  0  0
137157  1  0  0  0  0
137162  1  0  0  0  0
138365  1  0  0  0  0
139155  1  0  0  0  0
139366  1  0  0  0  0
140367  1  0  0  0  0
141194  1  0  0  0  0
142163  1  0  0  0  0
142368  1  0  0  0  0
143164  1  0  0  0  0
143369  1  0  0  0  0
144165  1  0  0  0  0
144370  1  0  0  0  0
145150  1  0  0  0  0
145371  1  0  0  0  0
145372  1  0  0  0  0
146373  1  0  0  0  0
146374  1  0  0  0  0
147159  1  0  0  0  0
147375  1  0  0  0  0
147376  1  0  0  0  0
148149  1  0  0  0  0
148152  1  0  0  0  0
148377  1  6  0  0  0
149138  1  0  0  0  0
149150  1  0  0  0  0
149378  1  6  0  0  0
150151  1  0  0  0  0
150379  1  1  0  0  0
151135  1  0  0  0  0
151380  1  6  0  0  0
152163  1  0  0  0  0
152381  1  6  0  0  0
153155  1  0  0  0  0
153157  1  0  0  0  0
153382  1  1  0  0  0
154134  1  0  0  0  0
154156  1  0  0  0  0
154383  1  6  0  0  0
155159  1  0  0  0  0
155384  1  6  0  0  0
156146  1  0  0  0  0
156158  1  0  0  0  0
156385  1  1  0  0  0
157164  1  0  0  0  0
157386  1  6  0  0  0
158140  1  0  0  0  0
158160  1  0  0  0  0
158387  1  1  0  0  0
159162  1  0  0  0  0
159388  1  1  0  0  0
160141  1  0  0  0  0
160161  1  0  0  0  0
160389  1  6  0  0  0
161165  1  0  0  0  0
161390  1  6  0  0  0
162391  1  6  0  0  0
163392  1  0  0  0  0
163393  1  0  0  0  0
164394  1  0  0  0  0
164395  1  0  0  0  0
165396  1  0  0  0  0
165397  1  0  0  0  0
166183  1  0  0  0  0
166184  1  0  0  0  0
167180  1  0  0  0  0
168185  1  0  0  0  0
169186  1  0  0  0  0
169193  1  0  0  0  0
170189  1  0  0  0  0
170194  1  0  0  0  0
171398  1  0  0  0  0
172187  1  0  0  0  0
172399  1  0  0  0  0
173400  1  0  0  0  0
174195  1  0  0  0  0
174401  1  0  0  0  0
175196  1  0  0  0  0
175402  1  0  0  0  0
176197  1  0  0  0  0
176403  1  0  0  0  0
177182  1  0  0  0  0
177404  1  0  0  0  0
177405  1  0  0  0  0
178406  1  0  0  0  0
178407  1  0  0  0  0
179191  1  0  0  0  0
179408  1  0  0  0  0
179409  1  0  0  0  0
180181  1  0  0  0  0
180184  1  0  0  0  0
180410  1  1  0  0  0
181171  1  0  0  0  0
181182  1  0  0  0  0
181411  1  6  0  0  0
182183  1  0  0  0  0
182412  1  6  0  0  0
183168  1  0  0  0  0
183413  1  1  0  0  0
184195  1  0  0  0  0
184414  1  1  0  0  0
185187  1  0  0  0  0
185189  1  0  0  0  0
185415  1  6  0  0  0
186167  1  0  0  0  0
186188  1  0  0  0  0
186416  1  1  0  0  0
187191  1  0  0  0  0
187417  1  1  0  0  0
188178  1  0  0  0  0
188190  1  0  0  0  0
188418  1  6  0  0  0
189196  1  0  0  0  0
189419  1  6  0  0  0
190173  1  0  0  0  0
190192  1  0  0  0  0
190420  1  1  0  0  0
191194  1  0  0  0  0
191421  1  1  0  0  0
192193  1  0  0  0  0
192206  1  0  0  0  0
192422  1  6  0  0  0
193197  1  0  0  0  0
193423  1  1  0  0  0
194424  1  6  0  0  0
195425  1  0  0  0  0
195426  1  0  0  0  0
196427  1  0  0  0  0
196428  1  0  0  0  0
197429  1  0  0  0  0
197430  1  0  0  0  0
198431  1  0  0  0  0
199218  1  0  0  0  0
199219  1  0  0  0  0
200215  1  0  0  0  0
201220  1  0  0  0  0
202221  1  0  0  0  0
202228  1  0  0  0  0
203224  1  0  0  0  0
203229  1  0  0  0  0
204432  1  0  0  0  0
205222  1  0  0  0  0
205433  1  0  0  0  0
207434  1  0  0  0  0
208229  1  0  0  0  0
208435  1  0  0  0  0
209230  1  0  0  0  0
209436  1  0  0  0  0
210231  1  0  0  0  0
210437  1  0  0  0  0
211232  1  0  0  0  0
211438  1  0  0  0  0
212217  1  0  0  0  0
212439  1  0  0  0  0
212440  1  0  0  0  0
213441  1  0  0  0  0
213442  1  0  0  0  0
214226  1  0  0  0  0
214443  1  0  0  0  0
214444  1  0  0  0  0
215216  1  0  0  0  0
215219  1  0  0  0  0
215445  1  1  0  0  0
216204  1  0  0  0  0
216217  1  0  0  0  0
216446  1  6  0  0  0
217218  1  0  0  0  0
217447  1  1  0  0  0
218201  1  0  0  0  0
218448  1  6  0  0  0
219230  1  0  0  0  0
219449  1  6  0  0  0
220222  1  0  0  0  0
220224  1  0  0  0  0
220450  1  6  0  0  0
221200  1  0  0  0  0
221223  1  0  0  0  0
221451  1  1  0  0  0
222226  1  0  0  0  0
222452  1  1  0  0  0
223213  1  0  0  0  0
223225  1  0  0  0  0
223453  1  6  0  0  0
224231  1  0  0  0  0
224454  1  1  0  0  0
225206  1  0  0  0  0
225227  1  0  0  0  0
225455  1  1  0  0  0
226229  1  0  0  0  0
226456  1  6  0  0  0
227207  1  0  0  0  0
227228  1  0  0  0  0
227457  1  1  0  0  0
228232  1  0  0  0  0
228458  1  6  0  0  0
229459  1  1  0  0  0
230460  1  0  0  0  0
230461  1  0  0  0  0
231462  1  0  0  0  0
231463  1  0  0  0  0
232464  1  0  0  0  0
232465  1  0  0  0  0
M  END
