
  ACD/LABS08142508242D

232252  0  0  1  0  0  0  0  0  1 V2000
   68.1002   -4.0942    0.0000 O   0  0  0  0  0  0  0  0  0  0  0  0
   65.7965   -6.7542    0.0000 O   0  0  0  0  0  0  0  0  0  0  0  0
   70.4038   -4.0942    0.0000 O   0  0  0  0  0  0  0  0  0  0  0  0
   64.6447   -4.7592    0.0000 O   0  0  0  0  0  0  0  0  0  0  0  0
   69.2520   -0.7691    0.0000 O   0  0  0  0  0  0  0  0  0  0  0  0
   68.1002   -8.0843    0.0000 O   0  0  0  0  0  0  0  0  0  0  0  0
   72.7076   -2.7641    0.0000 O   0  0  0  0  0  0  0  0  0  0  0  0
   61.1891   -6.7542    0.0000 O   0  0  0  0  0  0  0  0  0  0  0  0
   61.1891   -4.0942    0.0000 O   0  0  0  0  0  0  0  0  0  0  0  0
   70.4038    1.2259    0.0000 O   0  0  0  0  0  0  0  0  0  0  0  0
   65.7965   -2.7641    0.0000 O   0  0  0  0  0  0  0  0  0  0  0  0
   67.3968   -1.5543    0.0000 O   0  0  0  0  0  0  0  0  0  0  0  0
   62.3410   -2.0991    0.0000 O   0  0  0  0  0  0  0  0  0  0  0  0
   70.4038   -6.7542    0.0000 N   0  0  0  0  0  0  0  0  0  0  0  0
   63.4929   -8.0843    0.0000 N   0  0  0  0  0  0  0  0  0  0  0  0
   72.7076   -0.1041    0.0000 N   0  0  0  0  0  0  0  0  0  0  0  0
   66.9484   -6.0892    0.0000 C   0  0  0  0  0  0  0  0  0  0  0  0
   68.1002   -6.7542    0.0000 C   0  0  0  0  0  0  0  0  0  0  0  0
   69.2520   -6.0892    0.0000 C   0  0  0  0  0  0  0  0  0  0  0  0
   69.2520   -4.7592    0.0000 C   0  0  0  0  0  0  0  0  0  0  0  0
   66.9484   -4.7592    0.0000 C   0  0  0  0  0  0  0  0  0  0  0  0
   70.4038   -2.7641    0.0000 C   0  0  0  0  0  0  0  0  0  0  0  0
   64.6447   -6.0892    0.0000 C   0  0  0  0  0  0  0  0  0  0  0  0
   71.5558   -2.0991    0.0000 C   0  0  0  0  0  0  0  0  0  0  0  0
   63.4929   -6.7542    0.0000 C   0  0  0  0  0  0  0  0  0  0  0  0
   69.2520   -2.0991    0.0000 C   0  0  0  0  0  0  0  0  0  0  0  0
   62.3410   -6.0892    0.0000 C   0  0  0  0  0  0  0  0  0  0  0  0
   71.5558   -0.7691    0.0000 C   0  0  0  0  0  0  0  0  0  0  0  0
   62.3410   -4.7592    0.0000 C   0  0  0  0  0  0  0  0  0  0  0  0
   63.4929   -4.0942    0.0000 C   0  0  0  0  0  0  0  0  0  0  0  0
   70.4038   -0.1041    0.0000 C   0  0  0  0  0  0  0  0  0  0  0  0
   65.7965   -4.0942    0.0000 C   0  0  0  0  0  0  0  0  0  0  0  0
   68.1002   -2.7641    0.0000 C   0  0  0  0  0  0  0  0  0  0  0  0
   63.4929   -2.7641    0.0000 C   0  0  0  0  0  0  0  0  0  0  0  0
   55.7296  -13.7567    0.0000 O   0  0  0  0  0  0  0  0  0  0  0  0
   53.4259  -16.4168    0.0000 O   0  0  0  0  0  0  0  0  0  0  0  0
   58.0332  -13.7567    0.0000 O   0  0  0  0  0  0  0  0  0  0  0  0
   52.2741  -14.4217    0.0000 O   0  0  0  0  0  0  0  0  0  0  0  0
   56.8814  -10.4316    0.0000 O   0  0  0  0  0  0  0  0  0  0  0  0
   55.7296  -17.7468    0.0000 O   0  0  0  0  0  0  0  0  0  0  0  0
   60.3370  -12.4267    0.0000 O   0  0  0  0  0  0  0  0  0  0  0  0
   48.8185  -16.4168    0.0000 O   0  0  0  0  0  0  0  0  0  0  0  0
   48.8185  -13.7567    0.0000 O   0  0  0  0  0  0  0  0  0  0  0  0
   53.4259  -12.4267    0.0000 O   0  0  0  0  0  0  0  0  0  0  0  0
   54.2250  -11.1046    0.0000 O   0  0  0  0  0  0  0  0  0  0  0  0
   49.9704  -11.7617    0.0000 O   0  0  0  0  0  0  0  0  0  0  0  0
   58.0332  -16.4168    0.0000 N   0  0  0  0  0  0  0  0  0  0  0  0
   51.1222  -17.7468    0.0000 N   0  0  0  0  0  0  0  0  0  0  0  0
   60.3370   -9.7666    0.0000 N   0  0  0  0  0  0  0  0  0  0  0  0
   54.5778  -15.7518    0.0000 C   0  0  0  0  0  0  0  0  0  0  0  0
   55.7296  -16.4168    0.0000 C   0  0  0  0  0  0  0  0  0  0  0  0
   56.8814  -15.7518    0.0000 C   0  0  0  0  0  0  0  0  0  0  0  0
   56.8814  -14.4217    0.0000 C   0  0  0  0  0  0  0  0  0  0  0  0
   54.5778  -14.4217    0.0000 C   0  0  0  0  0  0  0  0  0  0  0  0
   58.0332  -12.4267    0.0000 C   0  0  0  0  0  0  0  0  0  0  0  0
   52.2741  -15.7518    0.0000 C   0  0  0  0  0  0  0  0  0  0  0  0
   59.1852  -11.7617    0.0000 C   0  0  0  0  0  0  0  0  0  0  0  0
   51.1222  -16.4168    0.0000 C   0  0  0  0  0  0  0  0  0  0  0  0
   56.8814  -11.7617    0.0000 C   0  0  0  0  0  0  0  0  0  0  0  0
   49.9704  -15.7518    0.0000 C   0  0  0  0  0  0  0  0  0  0  0  0
   59.1852  -10.4316    0.0000 C   0  0  0  0  0  0  0  0  0  0  0  0
   49.9704  -14.4217    0.0000 C   0  0  0  0  0  0  0  0  0  0  0  0
   51.1222  -13.7567    0.0000 C   0  0  0  0  0  0  0  0  0  0  0  0
   58.0332   -9.7666    0.0000 C   0  0  0  0  0  0  0  0  0  0  0  0
   53.4259  -13.7567    0.0000 C   0  0  0  0  0  0  0  0  0  0  0  0
   55.7296  -12.4267    0.0000 C   0  0  0  0  0  0  0  0  0  0  0  0
   51.1222  -12.4267    0.0000 C   0  0  0  0  0  0  0  0  0  0  0  0
   43.6154  -21.9771    0.0000 O   0  0  0  0  0  0  0  0  0  0  0  0
   41.3116  -24.6371    0.0000 O   0  0  0  0  0  0  0  0  0  0  0  0
   45.9190  -21.9771    0.0000 O   0  0  0  0  0  0  0  0  0  0  0  0
   40.1598  -22.6421    0.0000 O   0  0  0  0  0  0  0  0  0  0  0  0
   44.7672  -18.6520    0.0000 O   0  0  0  0  0  0  0  0  0  0  0  0
   43.6154  -25.9672    0.0000 O   0  0  0  0  0  0  0  0  0  0  0  0
   48.2227  -20.6470    0.0000 O   0  0  0  0  0  0  0  0  0  0  0  0
   36.7043  -24.6371    0.0000 O   0  0  0  0  0  0  0  0  0  0  0  0
   36.7043  -21.9771    0.0000 O   0  0  0  0  0  0  0  0  0  0  0  0
   41.3116  -20.6470    0.0000 O   0  0  0  0  0  0  0  0  0  0  0  0
   37.8562  -19.9820    0.0000 O   0  0  0  0  0  0  0  0  0  0  0  0
   45.9190  -24.6371    0.0000 N   0  0  0  0  0  0  0  0  0  0  0  0
   39.0080  -25.9672    0.0000 N   0  0  0  0  0  0  0  0  0  0  0  0
   48.2227  -17.9870    0.0000 N   0  0  0  0  0  0  0  0  0  0  0  0
   42.4636  -23.9721    0.0000 C   0  0  0  0  0  0  0  0  0  0  0  0
   43.6154  -24.6371    0.0000 C   0  0  0  0  0  0  0  0  0  0  0  0
   44.7672  -23.9721    0.0000 C   0  0  0  0  0  0  0  0  0  0  0  0
   44.7672  -22.6421    0.0000 C   0  0  0  0  0  0  0  0  0  0  0  0
   42.4636  -22.6421    0.0000 C   0  0  0  0  0  0  0  0  0  0  0  0
   45.9190  -20.6470    0.0000 C   0  0  0  0  0  0  0  0  0  0  0  0
   40.1598  -23.9721    0.0000 C   0  0  0  0  0  0  0  0  0  0  0  0
   47.0709  -19.9820    0.0000 C   0  0  0  0  0  0  0  0  0  0  0  0
   39.0080  -24.6371    0.0000 C   0  0  0  0  0  0  0  0  0  0  0  0
   44.7672  -19.9820    0.0000 C   0  0  0  0  0  0  0  0  0  0  0  0
   37.8562  -23.9721    0.0000 C   0  0  0  0  0  0  0  0  0  0  0  0
   47.0709  -18.6520    0.0000 C   0  0  0  0  0  0  0  0  0  0  0  0
   37.8562  -22.6421    0.0000 C   0  0  0  0  0  0  0  0  0  0  0  0
   39.0080  -21.9771    0.0000 C   0  0  0  0  0  0  0  0  0  0  0  0
   45.9190  -17.9870    0.0000 C   0  0  0  0  0  0  0  0  0  0  0  0
   41.3116  -21.9771    0.0000 C   0  0  0  0  0  0  0  0  0  0  0  0
   43.6154  -20.6470    0.0000 C   0  0  0  0  0  0  0  0  0  0  0  0
   39.0080  -20.6470    0.0000 C   0  0  0  0  0  0  0  0  0  0  0  0
   31.4531  -29.8449    0.0000 O   0  0  0  0  0  0  0  0  0  0  0  0
   29.1493  -32.5050    0.0000 O   0  0  0  0  0  0  0  0  0  0  0  0
   33.7567  -29.8449    0.0000 O   0  0  0  0  0  0  0  0  0  0  0  0
   27.9975  -30.5099    0.0000 O   0  0  0  0  0  0  0  0  0  0  0  0
   32.6049  -26.5198    0.0000 O   0  0  0  0  0  0  0  0  0  0  0  0
   31.4531  -33.8350    0.0000 O   0  0  0  0  0  0  0  0  0  0  0  0
   36.0604  -28.5149    0.0000 O   0  0  0  0  0  0  0  0  0  0  0  0
   24.5420  -32.5050    0.0000 O   0  0  0  0  0  0  0  0  0  0  0  0
   24.5420  -29.8449    0.0000 O   0  0  0  0  0  0  0  0  0  0  0  0
   29.1493  -28.5149    0.0000 O   0  0  0  0  0  0  0  0  0  0  0  0
   30.3013  -27.8499    0.0000 O   0  0  0  0  0  0  0  0  0  0  0  0
   25.6939  -27.8499    0.0000 O   0  0  0  0  0  0  0  0  0  0  0  0
   33.7567  -32.5050    0.0000 N   0  0  0  0  0  0  0  0  0  0  0  0
   26.8457  -33.8350    0.0000 N   0  0  0  0  0  0  0  0  0  0  0  0
   36.0604  -25.8548    0.0000 N   0  0  0  0  0  0  0  0  0  0  0  0
   30.3013  -31.8399    0.0000 C   0  0  0  0  0  0  0  0  0  0  0  0
   31.4531  -32.5050    0.0000 C   0  0  0  0  0  0  0  0  0  0  0  0
   32.6049  -31.8399    0.0000 C   0  0  0  0  0  0  0  0  0  0  0  0
   32.6049  -30.5099    0.0000 C   0  0  0  0  0  0  0  0  0  0  0  0
   30.3013  -30.5099    0.0000 C   0  0  0  0  0  0  0  0  0  0  0  0
   33.7567  -28.5149    0.0000 C   0  0  0  0  0  0  0  0  0  0  0  0
   27.9975  -31.8399    0.0000 C   0  0  0  0  0  0  0  0  0  0  0  0
   34.9086  -27.8499    0.0000 C   0  0  0  0  0  0  0  0  0  0  0  0
   26.8457  -32.5050    0.0000 C   0  0  0  0  0  0  0  0  0  0  0  0
   32.6049  -27.8499    0.0000 C   0  0  0  0  0  0  0  0  0  0  0  0
   25.6939  -31.8399    0.0000 C   0  0  0  0  0  0  0  0  0  0  0  0
   34.9086  -26.5198    0.0000 C   0  0  0  0  0  0  0  0  0  0  0  0
   25.6939  -30.5099    0.0000 C   0  0  0  0  0  0  0  0  0  0  0  0
   26.8457  -29.8449    0.0000 C   0  0  0  0  0  0  0  0  0  0  0  0
   33.7567  -25.8548    0.0000 C   0  0  0  0  0  0  0  0  0  0  0  0
   29.1493  -29.8449    0.0000 C   0  0  0  0  0  0  0  0  0  0  0  0
   31.4531  -28.5149    0.0000 C   0  0  0  0  0  0  0  0  0  0  0  0
   26.8457  -28.5149    0.0000 C   0  0  0  0  0  0  0  0  0  0  0  0
   21.4380  -40.1003    0.0000 O   0  0  0  0  0  0  0  0  0  0  0  0
   19.1343  -42.7604    0.0000 O   0  0  0  0  0  0  0  0  0  0  0  0
   23.7416  -40.1003    0.0000 O   0  0  0  0  0  0  0  0  0  0  0  0
   17.9825  -40.7653    0.0000 O   0  0  0  0  0  0  0  0  0  0  0  0
   22.5898  -36.7753    0.0000 O   0  0  0  0  0  0  0  0  0  0  0  0
   21.4380  -44.0904    0.0000 O   0  0  0  0  0  0  0  0  0  0  0  0
   26.0454  -38.7703    0.0000 O   0  0  0  0  0  0  0  0  0  0  0  0
   14.5269  -42.7604    0.0000 O   0  0  0  0  0  0  0  0  0  0  0  0
   14.5269  -40.1003    0.0000 O   0  0  0  0  0  0  0  0  0  0  0  0
   19.1343  -38.7703    0.0000 O   0  0  0  0  0  0  0  0  0  0  0  0
   20.2862  -38.1053    0.0000 O   0  0  0  0  0  0  0  0  0  0  0  0
   15.6789  -38.1053    0.0000 O   0  0  0  0  0  0  0  0  0  0  0  0
   23.7416  -42.7604    0.0000 N   0  0  0  0  0  0  0  0  0  0  0  0
   16.8307  -44.0904    0.0000 N   0  0  0  0  0  0  0  0  0  0  0  0
   26.0454  -36.1102    0.0000 N   0  0  0  0  0  0  0  0  0  0  0  0
   20.2862  -42.0954    0.0000 C   0  0  0  0  0  0  0  0  0  0  0  0
   21.4380  -42.7604    0.0000 C   0  0  0  0  0  0  0  0  0  0  0  0
   22.5898  -42.0954    0.0000 C   0  0  0  0  0  0  0  0  0  0  0  0
   22.5898  -40.7653    0.0000 C   0  0  0  0  0  0  0  0  0  0  0  0
   20.2862  -40.7653    0.0000 C   0  0  0  0  0  0  0  0  0  0  0  0
   23.7416  -38.7703    0.0000 C   0  0  0  0  0  0  0  0  0  0  0  0
   17.9825  -42.0954    0.0000 C   0  0  0  0  0  0  0  0  0  0  0  0
   24.8936  -38.1053    0.0000 C   0  0  0  0  0  0  0  0  0  0  0  0
   16.8307  -42.7604    0.0000 C   0  0  0  0  0  0  0  0  0  0  0  0
   22.5898  -38.1053    0.0000 C   0  0  0  0  0  0  0  0  0  0  0  0
   15.6789  -42.0954    0.0000 C   0  0  0  0  0  0  0  0  0  0  0  0
   24.8936  -36.7753    0.0000 C   0  0  0  0  0  0  0  0  0  0  0  0
   15.6789  -40.7653    0.0000 C   0  0  0  0  0  0  0  0  0  0  0  0
   16.8307  -40.1003    0.0000 C   0  0  0  0  0  0  0  0  0  0  0  0
   23.7416  -36.1102    0.0000 C   0  0  0  0  0  0  0  0  0  0  0  0
   19.1343  -40.1003    0.0000 C   0  0  0  0  0  0  0  0  0  0  0  0
   21.4380  -38.7703    0.0000 C   0  0  0  0  0  0  0  0  0  0  0  0
   16.8307  -38.7703    0.0000 C   0  0  0  0  0  0  0  0  0  0  0  0
   10.4134  -49.8750    0.0000 O   0  0  0  0  0  0  0  0  0  0  0  0
    8.1097  -52.5351    0.0000 O   0  0  0  0  0  0  0  0  0  0  0  0
   12.7171  -49.8750    0.0000 O   0  0  0  0  0  0  0  0  0  0  0  0
    6.9579  -50.5400    0.0000 O   0  0  0  0  0  0  0  0  0  0  0  0
   11.5653  -46.5500    0.0000 O   0  0  0  0  0  0  0  0  0  0  0  0
   10.4134  -53.8651    0.0000 O   0  0  0  0  0  0  0  0  0  0  0  0
   15.0208  -48.5450    0.0000 O   0  0  0  0  0  0  0  0  0  0  0  0
    3.5023  -52.5351    0.0000 O   0  0  0  0  0  0  0  0  0  0  0  0
    8.1097  -48.5450    0.0000 O   0  0  0  0  0  0  0  0  0  0  0  0
    9.2616  -47.8800    0.0000 O   0  0  0  0  0  0  0  0  0  0  0  0
    4.6543  -47.8800    0.0000 O   0  0  0  0  0  0  0  0  0  0  0  0
   12.7171  -52.5351    0.0000 N   0  0  0  0  0  0  0  0  0  0  0  0
    5.8061  -53.8651    0.0000 N   0  0  0  0  0  0  0  0  0  0  0  0
   15.0208  -45.8849    0.0000 N   0  0  0  0  0  0  0  0  0  0  0  0
    9.2616  -51.8701    0.0000 C   0  0  0  0  0  0  0  0  0  0  0  0
   10.4134  -52.5351    0.0000 C   0  0  0  0  0  0  0  0  0  0  0  0
   11.5653  -51.8701    0.0000 C   0  0  0  0  0  0  0  0  0  0  0  0
   11.5653  -50.5400    0.0000 C   0  0  0  0  0  0  0  0  0  0  0  0
    9.2616  -50.5400    0.0000 C   0  0  0  0  0  0  0  0  0  0  0  0
   12.7171  -48.5450    0.0000 C   0  0  0  0  0  0  0  0  0  0  0  0
    6.9579  -51.8701    0.0000 C   0  0  0  0  0  0  0  0  0  0  0  0
   13.8690  -47.8800    0.0000 C   0  0  0  0  0  0  0  0  0  0  0  0
    5.8061  -52.5351    0.0000 C   0  0  0  0  0  0  0  0  0  0  0  0
   11.5653  -47.8800    0.0000 C   0  0  0  0  0  0  0  0  0  0  0  0
    4.6543  -51.8701    0.0000 C   0  0  0  0  0  0  0  0  0  0  0  0
   13.8690  -46.5500    0.0000 C   0  0  0  0  0  0  0  0  0  0  0  0
    4.6543  -50.5400    0.0000 C   0  0  0  0  0  0  0  0  0  0  0  0
    5.8061  -49.8750    0.0000 C   0  0  0  0  0  0  0  0  0  0  0  0
   12.7171  -45.8849    0.0000 C   0  0  0  0  0  0  0  0  0  0  0  0
    8.1097  -49.8750    0.0000 C   0  0  0  0  0  0  0  0  0  0  0  0
   10.4134  -48.5450    0.0000 C   0  0  0  0  0  0  0  0  0  0  0  0
    5.8061  -48.5450    0.0000 C   0  0  0  0  0  0  0  0  0  0  0  0
   43.0728  -18.5239    0.0000 O   0  0  0  0  0  0  0  0  0  0  0  0
    8.5066  -40.0042    0.0000 O   0  0  0  0  0  0  0  0  0  0  0  0
    6.2028  -42.6642    0.0000 O   0  0  0  0  0  0  0  0  0  0  0  0
   10.8102  -40.0042    0.0000 O   0  0  0  0  0  0  0  0  0  0  0  0
    5.0510  -40.6692    0.0000 O   0  0  0  0  0  0  0  0  0  0  0  0
    9.6584  -36.6791    0.0000 O   0  0  0  0  0  0  0  0  0  0  0  0
    8.5066  -43.9943    0.0000 O   0  0  0  0  0  0  0  0  0  0  0  0
   13.1139  -38.6742    0.0000 O   0  0  0  0  0  0  0  0  0  0  0  0
    1.5955  -42.6642    0.0000 O   0  0  0  0  0  0  0  0  0  0  0  0
    1.5955  -40.0042    0.0000 O   0  0  0  0  0  0  0  0  0  0  0  0
   10.8102  -34.6841    0.0000 O   0  0  0  0  0  0  0  0  0  0  0  0
    6.2028  -38.6742    0.0000 O   0  0  0  0  0  0  0  0  0  0  0  0
    7.3548  -38.0091    0.0000 O   0  0  0  0  0  0  0  0  0  0  0  0
    2.7474  -38.0091    0.0000 O   0  0  0  0  0  0  0  0  0  0  0  0
   10.8102  -42.6642    0.0000 N   0  0  0  0  0  0  0  0  0  0  0  0
    3.8992  -43.9943    0.0000 N   0  0  0  0  0  0  0  0  0  0  0  0
   13.1139  -36.0141    0.0000 N   0  0  0  0  0  0  0  0  0  0  0  0
    7.3548  -41.9992    0.0000 C   0  0  0  0  0  0  0  0  0  0  0  0
    8.5066  -42.6642    0.0000 C   0  0  0  0  0  0  0  0  0  0  0  0
    9.6584  -41.9992    0.0000 C   0  0  0  0  0  0  0  0  0  0  0  0
    9.6584  -40.6692    0.0000 C   0  0  0  0  0  0  0  0  0  0  0  0
    7.3548  -40.6692    0.0000 C   0  0  0  0  0  0  0  0  0  0  0  0
   10.8102  -38.6742    0.0000 C   0  0  0  0  0  0  0  0  0  0  0  0
    5.0510  -41.9992    0.0000 C   0  0  0  0  0  0  0  0  0  0  0  0
   11.9621  -38.0091    0.0000 C   0  0  0  0  0  0  0  0  0  0  0  0
    3.8992  -42.6642    0.0000 C   0  0  0  0  0  0  0  0  0  0  0  0
    9.6584  -38.0091    0.0000 C   0  0  0  0  0  0  0  0  0  0  0  0
    2.7474  -41.9992    0.0000 C   0  0  0  0  0  0  0  0  0  0  0  0
   11.9621  -36.6791    0.0000 C   0  0  0  0  0  0  0  0  0  0  0  0
    2.7474  -40.6692    0.0000 C   0  0  0  0  0  0  0  0  0  0  0  0
    3.8992  -40.0042    0.0000 C   0  0  0  0  0  0  0  0  0  0  0  0
   10.8102  -36.0141    0.0000 C   0  0  0  0  0  0  0  0  0  0  0  0
    6.2028  -40.0042    0.0000 C   0  0  0  0  0  0  0  0  0  0  0  0
    8.5066  -38.6742    0.0000 C   0  0  0  0  0  0  0  0  0  0  0  0
    3.8992  -38.6742    0.0000 C   0  0  0  0  0  0  0  0  0  0  0  0
  1 20  1  0  0  0  0
  1 21  1  0  0  0  0
  2 17  1  0  0  0  0
 23  2  1  1  0  0  0
 20  3  1  1  0  0  0
  3 22  1  0  0  0  0
  4 23  1  0  0  0  0
  4 30  1  0  0  0  0
  5 26  1  0  0  0  0
  5 31  1  0  0  0  0
 18  6  1  1  0  0  0
  7 24  1  0  0  0  0
 27  8  1  1  0  0  0
 29  9  1  6  0  0  0
 10 31  1  0  0  0  0
 11 32  1  0  0  0  0
 12 33  1  0  0  0  0
 13 34  1  0  0  0  0
 14 19  1  0  0  0  0
 25 15  1  6  0  0  0
 16 28  1  0  0  0  0
 17 18  1  0  0  0  0
 17 21  1  0  0  0  0
 18 19  1  0  0  0  0
 19 20  1  0  0  0  0
 21 32  1  1  0  0  0
 22 24  1  0  0  0  0
 22 26  1  0  0  0  0
 23 25  1  0  0  0  0
 24 28  1  0  0  0  0
 25 27  1  0  0  0  0
 26 33  1  1  0  0  0
 27 29  1  0  0  0  0
 28 31  1  0  0  0  0
 29 30  1  0  0  0  0
 30 34  1  1  0  0  0
 35 53  1  0  0  0  0
 35 54  1  0  0  0  0
 36 50  1  0  0  0  0
 56 36  1  1  0  0  0
 53 37  1  1  0  0  0
 37 55  1  0  0  0  0
 38 56  1  0  0  0  0
 38 63  1  0  0  0  0
 39 59  1  0  0  0  0
 39 64  1  0  0  0  0
 51 40  1  1  0  0  0
 41 57  1  0  0  0  0
 60 42  1  1  0  0  0
 62 43  1  6  0  0  0
 44 65  1  0  0  0  0
 45 66  1  0  0  0  0
 46 67  1  0  0  0  0
 47 52  1  0  0  0  0
 58 48  1  6  0  0  0
 49 61  1  0  0  0  0
 50 51  1  0  0  0  0
 50 54  1  0  0  0  0
 51 52  1  0  0  0  0
 52 53  1  0  0  0  0
 54 65  1  1  0  0  0
 55 57  1  0  0  0  0
 55 59  1  0  0  0  0
 56 58  1  0  0  0  0
 57 61  1  0  0  0  0
 58 60  1  0  0  0  0
 59 66  1  1  0  0  0
 60 62  1  0  0  0  0
 61 64  1  0  0  0  0
 62 63  1  0  0  0  0
 63 67  1  1  0  0  0
 68 85  1  0  0  0  0
 68 86  1  0  0  0  0
 69 82  1  0  0  0  0
 88 69  1  1  0  0  0
 85 70  1  1  0  0  0
 70 87  1  0  0  0  0
 71 88  1  0  0  0  0
 71 95  1  0  0  0  0
 72 91  1  0  0  0  0
 72 96  1  0  0  0  0
 83 73  1  1  0  0  0
 74 89  1  0  0  0  0
 92 75  1  1  0  0  0
 94 76  1  6  0  0  0
 77 97  1  0  0  0  0
 78 99  1  0  0  0  0
 79 84  1  0  0  0  0
 90 80  1  6  0  0  0
 81 93  1  0  0  0  0
 82 83  1  0  0  0  0
 82 86  1  0  0  0  0
 83 84  1  0  0  0  0
 84 85  1  0  0  0  0
 86 97  1  1  0  0  0
 87 89  1  0  0  0  0
 87 91  1  0  0  0  0
 88 90  1  0  0  0  0
 89 93  1  0  0  0  0
 90 92  1  0  0  0  0
 91 98  1  1  0  0  0
 92 94  1  0  0  0  0
 93 96  1  0  0  0  0
 94 95  1  0  0  0  0
 95 99  1  1  0  0  0
100118  1  0  0  0  0
100119  1  0  0  0  0
101115  1  0  0  0  0
121101  1  1  0  0  0
118102  1  1  0  0  0
102120  1  0  0  0  0
103121  1  0  0  0  0
103128  1  0  0  0  0
104124  1  0  0  0  0
104129  1  0  0  0  0
116105  1  1  0  0  0
106122  1  0  0  0  0
125107  1  1  0  0  0
127108  1  6  0  0  0
109130  1  0  0  0  0
110131  1  0  0  0  0
111132  1  0  0  0  0
112117  1  0  0  0  0
123113  1  6  0  0  0
114126  1  0  0  0  0
115116  1  0  0  0  0
115119  1  0  0  0  0
116117  1  0  0  0  0
117118  1  0  0  0  0
119130  1  1  0  0  0
120122  1  0  0  0  0
120124  1  0  0  0  0
121123  1  0  0  0  0
122126  1  0  0  0  0
123125  1  0  0  0  0
124131  1  1  0  0  0
125127  1  0  0  0  0
126129  1  0  0  0  0
127128  1  0  0  0  0
128132  1  1  0  0  0
133151  1  0  0  0  0
133152  1  0  0  0  0
134148  1  0  0  0  0
154134  1  1  0  0  0
151135  1  1  0  0  0
135153  1  0  0  0  0
136154  1  0  0  0  0
136161  1  0  0  0  0
137157  1  0  0  0  0
137162  1  0  0  0  0
149138  1  1  0  0  0
139155  1  0  0  0  0
158140  1  1  0  0  0
160141  1  6  0  0  0
142163  1  0  0  0  0
143164  1  0  0  0  0
144165  1  0  0  0  0
145150  1  0  0  0  0
156146  1  6  0  0  0
147159  1  0  0  0  0
148149  1  0  0  0  0
148152  1  0  0  0  0
149150  1  0  0  0  0
150151  1  0  0  0  0
152163  1  1  0  0  0
153155  1  0  0  0  0
153157  1  0  0  0  0
154156  1  0  0  0  0
155159  1  0  0  0  0
156158  1  0  0  0  0
157164  1  1  0  0  0
158160  1  0  0  0  0
159162  1  0  0  0  0
160161  1  0  0  0  0
161165  1  1  0  0  0
166183  1  0  0  0  0
166184  1  0  0  0  0
167180  1  0  0  0  0
186167  1  1  0  0  0
183168  1  1  0  0  0
168185  1  0  0  0  0
169186  1  0  0  0  0
169193  1  0  0  0  0
170189  1  0  0  0  0
170194  1  0  0  0  0
181171  1  1  0  0  0
172187  1  0  0  0  0
190173  1  1  0  0  0
174195  1  0  0  0  0
175196  1  0  0  0  0
176197  1  0  0  0  0
177182  1  0  0  0  0
188178  1  6  0  0  0
179191  1  0  0  0  0
180181  1  0  0  0  0
180184  1  0  0  0  0
181182  1  0  0  0  0
182183  1  0  0  0  0
184195  1  1  0  0  0
185187  1  0  0  0  0
185189  1  0  0  0  0
186188  1  0  0  0  0
187191  1  0  0  0  0
188190  1  0  0  0  0
189196  1  1  0  0  0
190192  1  0  0  0  0
191194  1  0  0  0  0
192193  1  0  0  0  0
193197  1  1  0  0  0
141194  1  0  0  0  0
108162  1  0  0  0  0
 76129  1  0  0  0  0
 98198  1  0  0  0  0
 43 96  1  0  0  0  0
  9 64  1  0  0  0  0
199218  1  0  0  0  0
199219  1  0  0  0  0
200215  1  0  0  0  0
221200  1  1  0  0  0
218201  1  1  0  0  0
201220  1  0  0  0  0
202221  1  0  0  0  0
202228  1  0  0  0  0
203224  1  0  0  0  0
203229  1  0  0  0  0
216204  1  1  0  0  0
205222  1  0  0  0  0
225206  1  1  0  0  0
227207  1  6  0  0  0
208229  1  0  0  0  0
209230  1  0  0  0  0
210231  1  0  0  0  0
211232  1  0  0  0  0
212217  1  0  0  0  0
223213  1  6  0  0  0
214226  1  0  0  0  0
215216  1  0  0  0  0
215219  1  0  0  0  0
216217  1  0  0  0  0
217218  1  0  0  0  0
219230  1  1  0  0  0
220222  1  0  0  0  0
220224  1  0  0  0  0
221223  1  0  0  0  0
222226  1  0  0  0  0
223225  1  0  0  0  0
224231  1  1  0  0  0
225227  1  0  0  0  0
226229  1  0  0  0  0
227228  1  0  0  0  0
228232  1  1  0  0  0
192206  1  0  0  0  0
M  END
