
  ACD/LABS08142508402D

  6  5  0  0  0  0  0  0  0  0  1 V2000
    7.2269   -6.1052    0.0000 C   0  0  0  0  0  0  0  0  0  0  0  0
    8.3284   -5.3598    0.0000 C   0  0  0  0  0  0  0  0  0  0  0  0
    9.5246   -5.9411    0.0000 C   0  0  0  0  0  0  0  0  0  0  0  0
    8.2336   -4.0332    0.0000 O   0  0  0  0  0  0  0  0  0  0  0  0
    9.6194   -7.2677    0.0000 O   0  0  0  0  0  0  0  0  0  0  0  0
    6.0306   -5.5239    0.0000 O   0  0  0  0  0  0  0  0  0  0  0  0
  2  1  1  0  0  0  0
  3  2  1  0  0  0  0
  2  4  1  0  0  0  0
  3  5  1  0  0  0  0
  1  6  1  0  0  0  0
M  END
