
 OpenBabel08142508413D

 14 13  0  0  0  0  0  0  0  0999 V2000
   -1.1985   -0.3426   -0.2633 C   0  0  0  0  0  0  0  0  0  0  0  0
    0.0188    0.5994   -0.1652 C   0  0  0  0  0  0  0  0  0  0  0  0
    1.3329   -0.2101   -0.2115 C   0  0  0  0  0  0  0  0  0  0  0  0
   -0.0652    1.3208    1.0694 O   0  0  0  0  0  0  0  0  0  0  0  0
    1.4031   -1.0638    0.9363 O   0  0  0  0  0  0  0  0  0  0  0  0
   -2.3950    0.4427   -0.2065 O   0  0  0  0  0  0  0  0  0  0  0  0
   -1.1849   -1.0533    0.5773 H   0  0  0  0  0  0  0  0  0  0  0  0
   -1.1653   -0.8990   -1.2128 H   0  0  0  0  0  0  0  0  0  0  0  0
   -0.0079    1.3056   -1.0100 H   0  0  0  0  0  0  0  0  0  0  0  0
    2.1903    0.4806   -0.2056 H   0  0  0  0  0  0  0  0  0  0  0  0
    1.3644   -0.8137   -1.1317 H   0  0  0  0  0  0  0  0  0  0  0  0
    0.6638    1.9238    1.1547 H   0  0  0  0  0  0  0  0  0  0  0  0
    2.2052   -1.5735    0.9245 H   0  0  0  0  0  0  0  0  0  0  0  0
   -3.1616   -0.1169   -0.2557 H   0  0  0  0  0  0  0  0  0  0  0  0
  1  6  1  0  0  0  0
  1  7  1  0  0  0  0
  1  8  1  0  0  0  0
  2  1  1  0  0  0  0
  2  4  1  0  0  0  0
  2  9  1  0  0  0  0
  3  2  1  0  0  0  0
  3  5  1  0  0  0  0
  3 10  1  0  0  0  0
  3 11  1  0  0  0  0
  4 12  1  0  0  0  0
  5 13  1  0  0  0  0
  6 14  1  0  0  0  0
M  END
