129662530
  -OEChem-08142507052D

 69 71  0     1  0  0  0  0  0999 V2000
    7.7331   -0.5000    0.0000 O   0  0  0  0  0  0  0  0  0  0  0  0
    6.0010   -2.5000    0.0000 O   0  0  0  0  0  0  0  0  0  0  0  0
    9.4651   -0.5000    0.0000 O   0  0  0  0  0  0  0  0  0  0  0  0
    5.1350   -1.0000    0.0000 O   0  0  0  0  0  0  0  0  0  0  0  0
    8.5991    2.0000    0.0000 O   0  0  0  0  0  0  0  0  0  0  0  0
    7.7331   -3.5000    0.0000 O   0  0  0  0  0  0  0  0  0  0  0  0
   11.1972    0.5000    0.0000 O   0  0  0  0  0  0  0  0  0  0  0  0
    2.5369   -2.5000    0.0000 O   0  0  0  0  0  0  0  0  0  0  0  0
    2.5369   -0.5000    0.0000 O   0  0  0  0  0  0  0  0  0  0  0  0
    9.4651    3.5000    0.0000 O   0  0  0  0  0  0  0  0  0  0  0  0
    6.0010    0.5000    0.0000 O   0  0  0  0  0  0  0  0  0  0  0  0
    6.8671    1.0000    0.0000 O   0  0  0  0  0  0  0  0  0  0  0  0
    3.4030    1.0000    0.0000 O   0  0  0  0  0  0  0  0  0  0  0  0
    9.4651   -2.5000    0.0000 N   0  0  0  0  0  0  0  0  0  0  0  0
    4.2690   -3.5000    0.0000 N   0  0  0  0  0  0  0  0  0  0  0  0
   11.1972    2.5000    0.0000 N   0  0  0  0  0  0  0  0  0  0  0  0
    6.8671   -2.0000    0.0000 C   0  0  3  0  0  0  0  0  0  0  0  0
    7.7331   -2.5000    0.0000 C   0  0  1  0  0  0  0  0  0  0  0  0
    8.5991   -2.0000    0.0000 C   0  0  3  0  0  0  0  0  0  0  0  0
    8.5991   -1.0000    0.0000 C   0  0  1  0  0  0  0  0  0  0  0  0
    6.8671   -1.0000    0.0000 C   0  0  1  0  0  0  0  0  0  0  0  0
    9.4651    0.5000    0.0000 C   0  0  3  0  0  0  0  0  0  0  0  0
    5.1350   -2.0000    0.0000 C   0  0  2  0  0  0  0  0  0  0  0  0
   10.3312    1.0000    0.0000 C   0  0  3  0  0  0  0  0  0  0  0  0
    4.2690   -2.5000    0.0000 C   0  0  1  0  0  0  0  0  0  0  0  0
    8.5991    1.0000    0.0000 C   0  0  1  0  0  0  0  0  0  0  0  0
    3.4030   -2.0000    0.0000 C   0  0  2  0  0  0  0  0  0  0  0  0
   10.3312    2.0000    0.0000 C   0  0  3  0  0  0  0  0  0  0  0  0
    3.4030   -1.0000    0.0000 C   0  0  1  0  0  0  0  0  0  0  0  0
    4.2690   -0.5000    0.0000 C   0  0  1  0  0  0  0  0  0  0  0  0
    9.4651    2.5000    0.0000 C   0  0  3  0  0  0  0  0  0  0  0  0
    6.0010   -0.5000    0.0000 C   0  0  0  0  0  0  0  0  0  0  0  0
    7.7331    0.5000    0.0000 C   0  0  0  0  0  0  0  0  0  0  0  0
    4.2690    0.5000    0.0000 C   0  0  0  0  0  0  0  0  0  0  0  0
    6.3301   -1.6900    0.0000 H   0  0  0  0  0  0  0  0  0  0  0  0
    8.2700   -2.8100    0.0000 H   0  0  0  0  0  0  0  0  0  0  0  0
    9.1360   -1.6900    0.0000 H   0  0  0  0  0  0  0  0  0  0  0  0
    8.5991   -0.3800    0.0000 H   0  0  0  0  0  0  0  0  0  0  0  0
    6.8671   -0.3800    0.0000 H   0  0  0  0  0  0  0  0  0  0  0  0
   10.0021    0.1900    0.0000 H   0  0  0  0  0  0  0  0  0  0  0  0
    5.1350   -2.6200    0.0000 H   0  0  0  0  0  0  0  0  0  0  0  0
   10.8681    1.3100    0.0000 H   0  0  0  0  0  0  0  0  0  0  0  0
    3.7320   -2.8100    0.0000 H   0  0  0  0  0  0  0  0  0  0  0  0
    8.0622    1.3100    0.0000 H   0  0  0  0  0  0  0  0  0  0  0  0
    3.4030   -2.6200    0.0000 H   0  0  0  0  0  0  0  0  0  0  0  0
   10.8681    1.6900    0.0000 H   0  0  0  0  0  0  0  0  0  0  0  0
    3.4030   -0.3800    0.0000 H   0  0  0  0  0  0  0  0  0  0  0  0
    4.8059   -0.1900    0.0000 H   0  0  0  0  0  0  0  0  0  0  0  0
   10.0021    2.8100    0.0000 H   0  0  0  0  0  0  0  0  0  0  0  0
    5.3905   -0.3923    0.0000 H   0  0  0  0  0  0  0  0  0  0  0  0
    5.7890   -1.0826    0.0000 H   0  0  0  0  0  0  0  0  0  0  0  0
    9.4651   -3.1200    0.0000 H   0  0  0  0  0  0  0  0  0  0  0  0
   10.0021   -2.1900    0.0000 H   0  0  0  0  0  0  0  0  0  0  0  0
    7.3346    0.0251    0.0000 H   0  0  0  0  0  0  0  0  0  0  0  0
    8.1316    0.0251    0.0000 H   0  0  0  0  0  0  0  0  0  0  0  0
    7.1962   -3.8100    0.0000 H   0  0  0  0  0  0  0  0  0  0  0  0
    4.8796    0.3923    0.0000 H   0  0  0  0  0  0  0  0  0  0  0  0
    4.4810    1.0826    0.0000 H   0  0  0  0  0  0  0  0  0  0  0  0
    3.7320   -3.8100    0.0000 H   0  0  0  0  0  0  0  0  0  0  0  0
    4.8059   -3.8100    0.0000 H   0  0  0  0  0  0  0  0  0  0  0  0
   11.1972    3.1200    0.0000 H   0  0  0  0  0  0  0  0  0  0  0  0
   11.7341    2.1900    0.0000 H   0  0  0  0  0  0  0  0  0  0  0  0
   11.7341    0.8100    0.0000 H   0  0  0  0  0  0  0  0  0  0  0  0
    2.0000   -2.1900    0.0000 H   0  0  0  0  0  0  0  0  0  0  0  0
    2.0000   -0.8100    0.0000 H   0  0  0  0  0  0  0  0  0  0  0  0
    8.9282    3.8100    0.0000 H   0  0  0  0  0  0  0  0  0  0  0  0
    5.4641    0.8100    0.0000 H   0  0  0  0  0  0  0  0  0  0  0  0
    6.8671    1.6200    0.0000 H   0  0  0  0  0  0  0  0  0  0  0  0
    3.4030    1.6200    0.0000 H   0  0  0  0  0  0  0  0  0  0  0  0
  1 20  1  0  0  0  0
  1 21  1  0  0  0  0
  2 17  1  0  0  0  0
 23  2  1  1  0  0  0
 20  3  1  1  0  0  0
  3 22  1  0  0  0  0
  4 23  1  0  0  0  0
  4 30  1  0  0  0  0
  5 26  1  0  0  0  0
  5 31  1  0  0  0  0
 18  6  1  1  0  0  0
  6 56  1  0  0  0  0
  7 24  1  0  0  0  0
  7 63  1  0  0  0  0
 27  8  1  1  0  0  0
  8 64  1  0  0  0  0
 29  9  1  6  0  0  0
  9 65  1  0  0  0  0
 10 31  1  0  0  0  0
 10 66  1  0  0  0  0
 11 32  1  0  0  0  0
 11 67  1  0  0  0  0
 12 33  1  0  0  0  0
 12 68  1  0  0  0  0
 13 34  1  0  0  0  0
 13 69  1  0  0  0  0
 14 19  1  0  0  0  0
 14 52  1  0  0  0  0
 14 53  1  0  0  0  0
 25 15  1  6  0  0  0
 15 59  1  0  0  0  0
 15 60  1  0  0  0  0
 16 28  1  0  0  0  0
 16 61  1  0  0  0  0
 16 62  1  0  0  0  0
 17 18  1  0  0  0  0
 17 21  1  0  0  0  0
 17 35  1  0  0  0  0
 18 19  1  0  0  0  0
 18 36  1  0  0  0  0
 19 20  1  0  0  0  0
 19 37  1  0  0  0  0
 20 38  1  0  0  0  0
 21 32  1  1  0  0  0
 21 39  1  0  0  0  0
 22 24  1  0  0  0  0
 22 26  1  0  0  0  0
 22 40  1  0  0  0  0
 23 25  1  0  0  0  0
 23 41  1  0  0  0  0
 24 28  1  0  0  0  0
 24 42  1  0  0  0  0
 25 27  1  0  0  0  0
 25 43  1  0  0  0  0
 26 33  1  1  0  0  0
 26 44  1  0  0  0  0
 27 29  1  0  0  0  0
 27 45  1  0  0  0  0
 28 31  1  0  0  0  0
 28 46  1  0  0  0  0
 29 30  1  0  0  0  0
 29 47  1  0  0  0  0
 30 34  1  1  0  0  0
 30 48  1  0  0  0  0
 31 49  1  0  0  0  0
 32 50  1  0  0  0  0
 32 51  1  0  0  0  0
 33 54  1  0  0  0  0
 33 55  1  0  0  0  0
 34 57  1  0  0  0  0
 34 58  1  0  0  0  0
M  END
> <PUBCHEM_COMPOUND_CID>
129662530

> <PUBCHEM_COMPOUND_CANONICALIZED>
1

> <PUBCHEM_CACTVS_COMPLEXITY>
652

> <PUBCHEM_CACTVS_HBOND_ACCEPTOR>
16

> <PUBCHEM_CACTVS_HBOND_DONOR>
11

> <PUBCHEM_CACTVS_ROTATABLE_BOND>
7

> <PUBCHEM_CACTVS_SUBSKEYS>
AAADcfB7PAAAAAAAAAAAAAAAAAAAAAAAAAAkSJAAAAAAAAAAAAAAHgAQCAAACDzxgAcACABABgAAAAAAAAAAAAAAAAAAAIAAAAATEAIAgAAjQAAHEAAHAAHwcA0AAAAAAAAAAAAAAAAAAAAAAAAAAAAAAA==

> <PUBCHEM_IUPAC_OPENEYE_NAME>
(2R,3S,4R,5R,6S)-5-amino-6-[(2R,4R,6S)-5-amino-6-[(2R)-5-amino-4,6-dihydroxy-2-(hydroxymethyl)tetrahydropyran-3-yl]oxy-4-hydroxy-2-(hydroxymethyl)tetrahydropyran-3-yl]oxy-2-(hydroxymethyl)tetrahydropyran-3,4-diol

> <PUBCHEM_IUPAC_CAS_NAME>
(2R,3S,4R,5R,6S)-5-amino-6-[[(2R,4R,6S)-5-amino-6-[[(2R)-5-amino-4,6-dihydroxy-2-(hydroxymethyl)-3-oxanyl]oxy]-4-hydroxy-2-(hydroxymethyl)-3-oxanyl]oxy]-2-(hydroxymethyl)oxane-3,4-diol

> <PUBCHEM_IUPAC_NAME_MARKUP>
(2<I>R</I>,3<I>S</I>,4<I>R</I>,5<I>R</I>,6<I>S</I>)-5-amino-6-[(2<I>R</I>,4<I>R</I>,6<I>S</I>)-5-amino-6-[(2<I>R</I>)-5-amino-4,6-dihydroxy-2-(hydroxymethyl)oxan-3-yl]oxy-4-hydroxy-2-(hydroxymethyl)oxan-3-yl]oxy-2-(hydroxymethyl)oxane-3,4-diol

> <PUBCHEM_IUPAC_NAME>
(2R,3S,4R,5R,6S)-5-amino-6-[(2R,4R,6S)-5-amino-6-[(2R)-5-amino-4,6-dihydroxy-2-(hydroxymethyl)oxan-3-yl]oxy-4-hydroxy-2-(hydroxymethyl)oxan-3-yl]oxy-2-(hydroxymethyl)oxane-3,4-diol

> <PUBCHEM_IUPAC_SYSTEMATIC_NAME>
(2R,3S,4R,5R,6S)-5-azanyl-6-[(2R,4R,6S)-5-azanyl-6-[(2R)-5-azanyl-2-(hydroxymethyl)-4,6-bis(oxidanyl)oxan-3-yl]oxy-2-(hydroxymethyl)-4-oxidanyl-oxan-3-yl]oxy-2-(hydroxymethyl)oxane-3,4-diol

> <PUBCHEM_IUPAC_TRADITIONAL_NAME>
(2R,3S,4R,5R,6S)-5-amino-6-[(2R,4R,6S)-5-amino-6-[(2R)-5-amino-4,6-dihydroxy-2-methylol-tetrahydropyran-3-yl]oxy-4-hydroxy-2-methylol-tetrahydropyran-3-yl]oxy-2-methylol-tetrahydropyran-3,4-diol

> <PUBCHEM_IUPAC_INCHI>
InChI=1S/C18H35N3O13/c19-7-12(27)14(5(2-23)30-16(7)29)33-18-9(21)13(28)15(6(3-24)32-18)34-17-8(20)11(26)10(25)4(1-22)31-17/h4-18,22-29H,1-3,19-21H2/t4-,5-,6-,7?,8-,9?,10-,11-,12?,13-,14?,15?,16?,17+,18+/m1/s1

> <PUBCHEM_IUPAC_INCHIKEY>
RQFQJYYMBWVMQG-MGPWZXLVSA-N

> <PUBCHEM_XLOGP3_AA>
-7.6

> <PUBCHEM_EXACT_MASS>
501.21698818

> <PUBCHEM_MOLECULAR_FORMULA>
C18H35N3O13

> <PUBCHEM_MOLECULAR_WEIGHT>
501.5

> <PUBCHEM_SMILES>
C([C@@H]1[C@H]([C@@H]([C@H]([C@@H](O1)OC2[C@H](O[C@H](C([C@H]2O)N)OC3[C@H](OC(C(C3O)N)O)CO)CO)N)O)O)O

> <PUBCHEM_CONNECTIVITY_SMILES>
C(C1C(C(C(C(O1)OC2C(OC(C(C2O)N)OC3C(OC(C(C3O)N)O)CO)CO)N)O)O)O

> <PUBCHEM_CACTVS_TPSA>
286

> <PUBCHEM_MONOISOTOPIC_WEIGHT>
501.21698818

> <PUBCHEM_TOTAL_CHARGE>
0

> <PUBCHEM_HEAVY_ATOM_COUNT>
34

> <PUBCHEM_ATOM_DEF_STEREO_COUNT>
9

> <PUBCHEM_ATOM_UDEF_STEREO_COUNT>
6

> <PUBCHEM_BOND_DEF_STEREO_COUNT>
0

> <PUBCHEM_BOND_UDEF_STEREO_COUNT>
0

> <PUBCHEM_ISOTOPIC_ATOM_COUNT>
0

> <PUBCHEM_COMPONENT_COUNT>
1

> <PUBCHEM_CACTVS_TAUTO_COUNT>
-1

> <PUBCHEM_COORDINATE_TYPE>
1
5
255

> <PUBCHEM_BONDANNOTATIONS>
31  10  3
19  14  3
25  15  6
28  16  3
17  2  3
23  2  5
21  32  5
26  33  5
20  3  5
22  3  3
30  34  5
18  6  5
24  7  3
27  8  5
29  9  6

$$$$
